SandboxData_C2S7_20210305/C2S7N12209/scenario_001/case.raw
0,100.0,33,0,0,60.0
GRID OPTIMIZATION COMPETITION CHALLENGE 2
INPUT DATA FILES ARE RAW JSON CON
1,'BLUE HILL ~1',69.0,1,1,1,1,1.04039967,3.939272,1.1,0.9,1.1,0.9
2,'BLUE HILL ~2',161.0,1,1,1,1,1.03611088,6.053762,1.1,0.9,1.1,0.9
3,'BLUE HILL ~3',69.0,1,1,1,1,1.04086554,4.274753,1.1,0.9,1.1,0.9
4,'BLUE HILL ~4',161.0,1,1,1,1,1.03609025,6.05197,1.1,0.9,1.1,0.9
5,'CAMPBELL 1 1',69.0,1,1,1,1,1.03429794,3.375761,1.1,0.9,1.1,0.9
6,'GLENVIL 1',69.0,1,1,1,1,1.03236151,2.150624,1.1,0.9,1.1,0.9
7,'HASTINGS 1 1',161.0,1,1,1,1,1.04154587,5.182812,1.1,0.9,1.1,0.9
8,'HASTINGS 1 2',69.0,1,1,1,1,1.03692436,3.767902,1.1,0.9,1.1,0.9
9,'HASTINGS 1 3',161.0,1,1,1,1,1.04163909,5.195153,1.1,0.9,1.1,0.9
10,'HASTINGS 2 1',69.0,1,1,1,1,1.02401292,2.746849,1.1,0.9,1.1,0.9
11,'HASTINGS 3 1',69.0,1,1,1,1,1.02647972,1.902042,1.1,0.9,1.1,0.9
12,'HASTINGS 4 1',161.0,1,1,1,1,1.04113281,5.155971,1.1,0.9,1.1,0.9
13,'HASTINGS 4 2',69.0,1,1,1,1,1.04089892,4.242571,1.1,0.9,1.1,0.9
14,'HASTINGS 4 3',161.0,1,1,1,1,1.0410428,5.147161,1.1,0.9,1.1,0.9
15,'HOLSTEIN 1 1',69.0,1,1,1,1,1.03514457,3.492515,1.1,0.9,1.1,0.9
16,'HOLSTEIN 1 2',69.0,1,1,1,1,1.03513789,3.491921,1.1,0.9,1.1,0.9
17,'JUNIATA 1 1',69.0,1,1,1,1,1.03989387,3.965228,1.1,0.9,1.1,0.9
18,'JUNIATA 2 1',69.0,1,1,1,1,1.03942239,3.69328,1.1,0.9,1.1,0.9
19,'JUNIATA 3 1',69.0,1,1,1,1,1.03942561,3.027062,1.1,0.9,1.1,0.9
20,'KENESAW 1 1',69.0,1,1,1,1,1.03493428,3.881096,1.1,0.9,1.1,0.9
21,'KENESAW 2 1',69.0,1,1,1,1,1.03998578,2.50748,1.1,0.9,1.1,0.9
22,'KENESAW 3 1',69.0,1,1,1,1,1.03695142,3.961472,1.1,0.9,1.1,0.9
23,'ROSELAND 1',69.0,1,1,1,1,1.03467953,3.19963,1.1,0.9,1.1,0.9
24,'ROSELAND 2',69.0,1,1,1,1,1.03468943,3.201237,1.1,0.9,1.1,0.9
25,'WOOD RIVER~1',69.0,1,1,1,1,1.03921139,4.105198,1.1,0.9,1.1,0.9
26,'WOOD RIVER~2',69.0,1,1,1,1,1.02980781,3.033507,1.1,0.9,1.1,0.9
27,'WOOD RIVER~3',69.0,1,1,1,1,1.02933204,2.968696,1.1,0.9,1.1,0.9
28,'WOOD RIVER~4',69.0,1,1,1,1,1.02932429,2.967333,1.1,0.9,1.1,0.9
29,'CLEARWATER~1',69.0,1,1,1,1,1.02669919,-5.039894,1.1,0.9,1.1,0.9
30,'CLEARWATER~2',69.0,1,1,1,1,1.02669013,-5.040721,1.1,0.9,1.1,0.9
31,'CLEARWATER~3',69.0,1,1,1,1,1.02511501,-4.169083,1.1,0.9,1.1,0.9
32,'CREIGHTON ~1',69.0,1,1,1,1,1.02777636,-3.772357,1.1,0.9,1.1,0.9
33,'CREIGHTON ~2',69.0,1,1,1,1,1.02743542,-4.20878,1.1,0.9,1.1,0.9
34,'CREIGHTON ~3',69.0,1,1,1,1,1.02708399,-4.002945,1.1,0.9,1.1,0.9
35,'ELGIN 1 1',69.0,1,1,1,1,1.02790833,-5.031254,1.1,0.9,1.1,0.9
36,'ELGIN 1 2',69.0,1,1,1,1,1.02791274,-5.03035,1.1,0.9,1.1,0.9
37,'ELGIN 2 1',69.0,1,1,1,1,1.02841854,-4.986496,1.1,0.9,1.1,0.9
38,'EWING 1 1',69.0,1,1,1,1,1.02069914,-1.188574,1.1,0.9,1.1,0.9
39,'EWING 2 1',69.0,1,1,1,1,1.02773118,-4.946337,1.1,0.9,1.1,0.9
40,'NELIGH 1 1',69.0,1,1,1,1,1.03441155,-2.826844,1.1,0.9,1.1,0.9
41,'NELIGH 2 1',161.0,1,1,1,1,1.00827122,-0.131726,1.1,0.9,1.1,0.9
42,'NELIGH 2 2',69.0,1,1,1,1,1.02874649,-2.608842,1.1,0.9,1.1,0.9
43,'NELIGH 2 3',161.0,1,1,1,1,1.00704634,-0.117581,1.1,0.9,1.1,0.9
44,'ORCHARD 1 1',69.0,1,1,1,1,1.02873504,-4.421982,1.1,0.9,1.1,0.9
45,'ORCHARD 1 2',69.0,1,1,1,1,1.02872646,-4.422829,1.1,0.9,1.1,0.9
46,'ORCHARD 2 1',69.0,1,1,1,1,1.02837932,-4.653106,1.1,0.9,1.1,0.9
47,'PLAINVIEW ~1',69.0,1,1,1,1,1.02849996,-3.655771,1.1,0.9,1.1,0.9
48,'PLAINVIEW ~2',69.0,1,1,1,1,1.02887869,-3.598673,1.1,0.9,1.1,0.9
49,'PLAINVIEW ~3',69.0,1,1,1,1,1.0339123,-3.871537,1.1,0.9,1.1,0.9
50,'TILDEN 1 1',69.0,1,1,1,1,1.02543247,-4.841274,1.1,0.9,1.1,0.9
51,'TILDEN 1 2',69.0,1,1,1,1,1.02542281,-4.842605,1.1,0.9,1.1,0.9
52,'TILDEN 2 1',69.0,1,1,1,1,1.02022469,-5.580438,1.1,0.9,1.1,0.9
53,'ARTHUR 1 1',69.0,1,1,1,1,1.02745402,-2.218223,1.1,0.9,1.1,0.9
54,'ARTHUR 2 1',69.0,1,1,1,1,1.03285885,-1.968341,1.1,0.9,1.1,0.9
55,'HYANNIS 1',69.0,1,1,1,1,1.01196587,-2.801613,1.1,0.9,1.1,0.9
56,'HYANNIS 2',69.0,1,1,1,1,1.01195991,-2.802103,1.1,0.9,1.1,0.9
57,'LEMOYNE 1',69.0,1,1,1,1,1.028332,-0.412381,1.1,0.9,1.1,0.9
58,'LEMOYNE 2',69.0,1,1,1,1,1.02832913,-0.412805,1.1,0.9,1.1,0.9
59,'WHITMAN 1',69.0,1,1,1,1,1.02232504,1.607242,1.1,0.9,1.1,0.9
60,'BAYARD 1 1',69.0,1,1,1,1,1.0317626,-18.543583,1.1,0.9,1.1,0.9
61,'BAYARD 2 1',69.0,1,1,1,1,1.03402817,-18.632064,1.1,0.9,1.1,0.9
62,'BAYARD 3 1',69.0,1,1,1,1,1.03256154,-18.389444,1.1,0.9,1.1,0.9
63,'BUSHNELL 1',69.0,1,1,1,1,1.03207874,-12.871074,1.1,0.9,1.1,0.9
64,'GERING 1 1',161.0,1,1,1,1,1.02717388,-17.007914,1.1,0.9,1.1,0.9
65,'GERING 1 2',161.0,1,1,1,1,1.02717388,-17.007914,1.1,0.9,1.1,0.9
66,'GERING 1 3',161.0,1,1,1,1,1.02717388,-17.007914,1.1,0.9,1.1,0.9
67,'GERING 2 1',161.0,1,1,1,1,1.02365923,-16.816462,1.1,0.9,1.1,0.9
68,'GERING 2 2',69.0,1,1,1,1,1.0179913,-16.285336,1.1,0.9,1.1,0.9
69,'GERING 2 3',161.0,1,1,1,1,1.02361369,-16.822034,1.1,0.9,1.1,0.9
70,'GERING 3 1',69.0,1,1,1,1,1.01506627,-16.291789,1.1,0.9,1.1,0.9
71,'HARRISBURG~1',69.0,1,1,1,1,1.01895249,-15.688714,1.1,0.9,1.1,0.9
72,'KIMBALL 1 1',69.0,1,1,1,1,1.03282094,-12.642214,1.1,0.9,1.1,0.9
73,'KIMBALL 2 1',69.0,1,1,1,1,1.0331769,-12.49127,1.1,0.9,1.1,0.9
74,'PINE BLUFF~1',69.0,1,1,1,1,1.03011537,-13.047237,1.1,0.9,1.1,0.9
75,'PINE BLUFF~2',161.0,1,1,1,1,1.03229523,-14.648835,1.1,0.9,1.1,0.9
76,'POTTER 1',69.0,1,1,1,1,1.03358412,-12.015668,1.1,0.9,1.1,0.9
77,'ANSELMO 1',69.0,1,1,1,1,1.02613235,5.423463,1.1,0.9,1.1,0.9
78,'DUNNING 1',69.0,1,1,1,1,1.03141809,5.997614,1.1,0.9,1.1,0.9
79,'ALBION 1 1',161.0,1,1,1,1,1.0328933,-4.595073,1.1,0.9,1.1,0.9
80,'ALBION 1 2',69.0,1,1,1,1,1.02492273,-4.711048,1.1,0.9,1.1,0.9
81,'ALBION 1 3',161.0,1,1,1,1,1.03300476,-4.594658,1.1,0.9,1.1,0.9
82,'ALBION 2 1',69.0,1,1,1,1,1.0230695,-4.7606,1.1,0.9,1.1,0.9
83,'ALBION 3 1',69.0,1,1,1,1,1.02235031,-4.510277,1.1,0.9,1.1,0.9
84,'CEDAR RAPI~1',69.0,1,1,1,1,1.02370465,-4.38459,1.1,0.9,1.1,0.9
85,'CEDAR RAP~14',69.0,1,1,1,1,1.02595294,-1.906101,1.1,0.9,1.1,0.9
86,'NEWMAN GRO~1',69.0,1,1,1,1,1.0198915,-5.733536,1.1,0.9,1.1,0.9
87,'NEWMAN GRO~2',69.0,1,1,1,1,1.01988816,-5.734101,1.1,0.9,1.1,0.9
88,'NEWMAN GRO~3',69.0,1,1,1,1,1.01981795,-6.125241,1.1,0.9,1.1,0.9
89,'NEWMAN GRO~4',69.0,1,1,1,1,1.01982331,-6.124713,1.1,0.9,1.1,0.9
90,'NEWMAN GRO~5',69.0,1,1,1,1,1.01957464,-6.128818,1.1,0.9,1.1,0.9
91,'NEWMAN GRO~6',69.0,1,1,1,1,1.01955509,-6.13012,1.1,0.9,1.1,0.9
92,'PETERSBURG~1',69.0,1,1,1,1,1.0281893,-4.922112,1.1,0.9,1.1,0.9
93,'PETERSBURG~2',69.0,1,1,1,1,1.02819443,-4.921414,1.1,0.9,1.1,0.9
94,'SAINT EDWA~1',69.0,1,1,1,1,1.01592386,-5.225508,1.1,0.9,1.1,0.9
95,'SAINT EDWA~2',69.0,1,1,1,1,1.02012682,-5.239745,1.1,0.9,1.1,0.9
96,'ALLIANCE 1 1',69.0,1,1,1,1,1.00446916,-15.811381,1.1,0.9,1.1,0.9
97,'ALLIANCE 2 1',69.0,1,1,1,1,1.00612068,-15.998282,1.1,0.9,1.1,0.9
98,'ALLIANCE 3 1',161.0,1,1,1,1,1.0322721,-15.475887,1.1,0.9,1.1,0.9
99,'ALLIANCE 3 2',161.0,1,1,1,1,1.02928889,-15.473589,1.1,0.9,1.1,0.9
100,'ALLIANCE 3 3',69.0,1,1,1,1,1.00943911,-15.312886,1.1,0.9,1.1,0.9
101,'ALLIANCE 3 4',161.0,1,1,1,1,1.02921724,-15.473684,1.1,0.9,1.1,0.9
102,'HEMINGFORD~1',69.0,1,1,1,1,1.01332629,-16.164602,1.1,0.9,1.1,0.9
103,'HEMINGFORD~2',69.0,1,1,1,1,1.0133481,-16.162874,1.1,0.9,1.1,0.9
104,'HEMINGFORD~3',69.0,1,1,1,1,1.01404345,-16.692567,1.1,0.9,1.1,0.9
105,'BUTTE 1 1',69.0,1,1,1,1,1.02889526,1.915122,1.1,0.9,1.1,0.9
106,'BUTTE 1 2',69.0,1,1,1,1,1.02887523,1.913943,1.1,0.9,1.1,0.9
107,'LYNCH 1 1',69.0,1,1,1,1,1.03324175,1.815289,1.1,0.9,1.1,0.9
108,'LYNCH 2 1',69.0,1,1,1,1,1.03543305,2.791912,1.1,0.9,1.1,0.9
109,'LYNCH 2 2',69.0,1,1,1,1,1.03543913,2.792513,1.1,0.9,1.1,0.9
110,'NAPER 1',69.0,1,1,1,1,1.03156757,2.076138,1.1,0.9,1.1,0.9
111,'SPENCER 1 1',69.0,1,1,1,1,1.02743506,1.47279,1.1,0.9,1.1,0.9
112,'SPENCER 2 1',69.0,1,1,1,1,1.02533352,0.977608,1.1,0.9,1.1,0.9
113,'AINSWORTH ~1',69.0,1,1,1,1,1.02506328,-5.980057,1.1,0.9,1.1,0.9
114,'AINSWORTH ~2',69.0,1,1,1,1,1.02434683,-5.861171,1.1,0.9,1.1,0.9
115,'AINSWORTH ~3',69.0,1,1,1,1,1.0243355,-5.862456,1.1,0.9,1.1,0.9
116,'JOHNSTOWN 1',69.0,1,1,1,1,1.02296698,-5.107017,1.1,0.9,1.1,0.9
117,'LONG PINE 1',69.0,1,1,1,1,1.02288151,-4.989396,1.1,0.9,1.1,0.9
118,'AMHERST 1 1',69.0,1,1,1,1,1.01319611,1.551301,1.1,0.9,1.1,0.9
119,'AMHERST 2 1',69.0,1,1,1,1,1.01370215,1.651105,1.1,0.9,1.1,0.9
120,'ELM CREEK ~1',69.0,1,1,1,1,1.02653372,3.402813,1.1,0.9,1.1,0.9
121,'ELM CREEK ~2',69.0,1,1,1,1,1.02654135,3.403778,1.1,0.9,1.1,0.9
122,'ELM CREEK ~3',69.0,1,1,1,1,1.02266026,3.124772,1.1,0.9,1.1,0.9
123,'GIBBON 1 1',69.0,1,1,1,1,1.02829456,3.448204,1.1,0.9,1.1,0.9
124,'GIBBON 2 1',69.0,1,1,1,1,1.03246975,3.801037,1.1,0.9,1.1,0.9
125,'KEARNEY 1 1',69.0,1,1,1,1,1.0122999,1.825009,1.1,0.9,1.1,0.9
126,'KEARNEY 1 2',69.0,1,1,1,1,1.01223767,1.814665,1.1,0.9,1.1,0.9
127,'KEARNEY 2 1',161.0,1,1,1,1,1.04017389,7.394692,1.1,0.9,1.1,0.9
128,'KEARNEY 3 1',69.0,1,1,1,1,1.01238108,1.780868,1.1,0.9,1.1,0.9
129,'KEARNEY 4 1',500.0,1,1,1,1,1.04411066,8.830448,1.1,0.9,1.1,0.9
130,'KEARNEY 4 2',161.0,1,1,1,1,1.04378247,8.290049,1.1,0.9,1.1,0.9
131,'KEARNEY 4 3',500.0,1,1,1,1,1.04402006,8.82195,1.1,0.9,1.1,0.9
132,'KEARNEY 5 1',161.0,1,1,1,1,1.03959763,6.728655,1.1,0.9,1.1,0.9
133,'KEARNEY 5 ~1',161.0,1,1,1,1,1.03959763,6.728655,1.1,0.9,1.1,0.9
134,'KEARNEY 5 2',69.0,1,1,1,1,1.03624129,4.243496,1.1,0.9,1.1,0.9
135,'KEARNEY 5 3',161.0,1,1,1,1,1.03968978,6.746104,1.1,0.9,1.1,0.9
136,'KEARNEY 6 1',69.0,1,1,1,1,1.01060522,1.978993,1.1,0.9,1.1,0.9
137,'KEARNEY 7 1',69.0,1,1,1,1,1.01333082,2.289986,1.1,0.9,1.1,0.9
138,'KEARNEY 8 1',161.0,1,1,1,1,1.03924394,6.989164,1.1,0.9,1.1,0.9
139,'PLEASANTON~1',69.0,1,1,1,1,1.01938009,1.986981,1.1,0.9,1.1,0.9
140,'PLEASANTON~2',69.0,1,1,1,1,1.02368248,2.274439,1.1,0.9,1.1,0.9
141,'RAVENNA 1 1',69.0,1,1,1,1,1.03742933,3.615115,1.1,0.9,1.1,0.9
142,'RAVENNA 1 2',69.0,1,1,1,1,1.03741884,3.613544,1.1,0.9,1.1,0.9
143,'RAVENNA 2 1',69.0,1,1,1,1,1.03405643,3.520658,1.1,0.9,1.1,0.9
144,'RAVENNA 3 1',161.0,1,1,1,1,1.03904235,4.279398,1.1,0.9,1.1,0.9
145,'RAVENNA 3 2',69.0,1,1,1,1,1.03893614,3.58765,1.1,0.9,1.1,0.9
146,'RAVENNA 3 3',161.0,1,1,1,1,1.03909957,4.293646,1.1,0.9,1.1,0.9
147,'SHELTON 1 1',69.0,1,1,1,1,1.03076696,3.369602,1.1,0.9,1.1,0.9
148,'SHELTON 2 1',69.0,1,1,1,1,1.03669488,3.882794,1.1,0.9,1.1,0.9
149,'CRAIG 1',69.0,1,1,1,1,1.02482688,-1.764723,1.1,0.9,1.1,0.9
150,'CRAIG 2',69.0,1,1,1,1,1.02483022,-1.764299,1.1,0.9,1.1,0.9
151,'DECATUR 1',69.0,1,1,1,1,1.01990795,0.06879,1.1,0.9,1.1,0.9
152,'HERMAN 1 1',69.0,1,1,1,1,1.02329648,-3.736556,1.1,0.9,1.1,0.9
153,'LYONS 1 1',69.0,1,1,1,1,1.01860976,-0.1298,1.1,0.9,1.1,0.9
154,'LYONS 1 2',69.0,1,1,1,1,1.01859987,-0.130406,1.1,0.9,1.1,0.9
155,'LYONS 2 1',69.0,1,1,1,1,1.02221084,-1.564232,1.1,0.9,1.1,0.9
156,'LYONS 2 2',69.0,1,1,1,1,1.0221988,-1.565651,1.1,0.9,1.1,0.9
157,'OAKLAND 1 1',69.0,1,1,1,1,1.01943719,-4.425827,1.1,0.9,1.1,0.9
158,'OAKLAND 2 1',69.0,1,1,1,1,1.02129936,-2.872377,1.1,0.9,1.1,0.9
159,'OAKLAND 3 1',69.0,1,1,1,1,1.02212763,-2.59996,1.1,0.9,1.1,0.9
160,'OAKLAND 3 2',69.0,1,1,1,1,1.02211332,-2.601107,1.1,0.9,1.1,0.9
161,'TEKAMAH 1 1',69.0,1,1,1,1,1.0287652,-2.458086,1.1,0.9,1.1,0.9
162,'TEKAMAH 2 1',69.0,1,1,1,1,1.0265249,-2.257324,1.1,0.9,1.1,0.9
163,'TEKAMAH 3 1',161.0,1,1,1,1,1.03705072,-1.633145,1.1,0.9,1.1,0.9
164,'TEKAMAH 3 2',69.0,1,1,1,1,1.03083396,-2.552768,1.1,0.9,1.1,0.9
165,'TEKAMAH 3 3',161.0,1,1,1,1,1.03702903,-1.635905,1.1,0.9,1.1,0.9
166,'BELLWOOD 1',69.0,1,1,1,1,1.02144492,-6.008177,1.1,0.9,1.1,0.9
167,'BRAINARD 1 1',69.0,1,1,1,1,1.02871799,-5.327224,1.1,0.9,1.1,0.9
168,'BRAINARD 2 1',69.0,1,1,1,1,1.02759218,-5.283226,1.1,0.9,1.1,0.9
169,'COLUMBUS 1 1',69.0,1,1,1,1,1.00222206,-6.484173,1.1,0.9,1.1,0.9
170,'COLUMBUS 2 1',161.0,1,1,1,1,1.0315491,-5.213752,1.1,0.9,1.1,0.9
171,'COLUMBUS 2 2',161.0,1,1,1,1,1.031654,-5.20302,1.1,0.9,1.1,0.9
172,'COLUMBUS 3 1',69.0,1,1,1,1,0.99763793,-6.592928,1.1,0.9,1.1,0.9
173,'COLUMBUS 3 2',69.0,1,1,1,1,0.99730045,-6.60674,1.1,0.9,1.1,0.9
174,'COLUMBUS 4 1',161.0,1,1,1,1,1.03389585,-5.558958,1.1,0.9,1.1,0.9
175,'COLUMBUS 4 2',161.0,1,1,1,1,1.03375888,-5.570869,1.1,0.9,1.1,0.9
176,'David City~1',69.0,1,1,1,1,1.03355956,-5.558709,1.1,0.9,1.1,0.9
177,'David City~5',69.0,1,1,1,1,1.03230798,-5.510389,1.1,0.9,1.1,0.9
178,'DAVID CITY~8',69.0,1,1,1,1,1.02530169,-5.85082,1.1,0.9,1.1,0.9
179,'RISING CIT~1',69.0,1,1,1,1,1.0316875,-5.332656,1.1,0.9,1.1,0.9
180,'RISING CIT~2',69.0,1,1,1,1,1.03168571,-5.332937,1.1,0.9,1.1,0.9
181,'SHELBY 1 1',69.0,1,1,1,1,1.01052725,-6.174349,1.1,0.9,1.1,0.9
182,'SHELBY 2 1',69.0,1,1,1,1,1.02957463,-4.840131,1.1,0.9,1.1,0.9
183,'ASHLAND 1 1',69.0,1,1,1,1,1.01385319,-4.558297,1.1,0.9,1.1,0.9
184,'ASHLAND 2 1',69.0,1,1,1,1,1.02910101,-3.878469,1.1,0.9,1.1,0.9
185,'ASHLAND 3 1',69.0,1,1,1,1,1.01333821,-4.479147,1.1,0.9,1.1,0.9
186,'AVOCA 1 1',69.0,1,1,1,1,1.02546096,-3.43487,1.1,0.9,1.1,0.9
187,'EAGLE 1 1',69.0,1,1,1,1,1.01559472,-3.85132,1.1,0.9,1.1,0.9
188,'EAGLE 2 1',69.0,1,1,1,1,1.01092637,-3.936743,1.1,0.9,1.1,0.9
189,'EAGLE 2 2',69.0,1,1,1,1,1.01091504,-3.937813,1.1,0.9,1.1,0.9
190,'EAGLE 3 1',69.0,1,1,1,1,1.01042962,-4.054097,1.1,0.9,1.1,0.9
191,'EAGLE 3 2',69.0,1,1,1,1,1.01037717,-4.05781,1.1,0.9,1.1,0.9
192,'GREENWOOD ~1',69.0,1,1,1,1,1.01512182,-3.943248,1.1,0.9,1.1,0.9
193,'LOUISVILLE 1',69.0,1,1,1,1,1.0082531,-6.791438,1.1,0.9,1.1,0.9
194,'MURDOCK 1 1',69.0,1,1,1,1,1.02761197,-3.623289,1.1,0.9,1.1,0.9
195,'MURRAY 1 1',69.0,1,1,1,1,1.03617823,-4.098302,1.1,0.9,1.1,0.9
196,'PLATTSMOUT~1',69.0,1,1,1,1,1.02470601,-7.368956,1.1,0.9,1.1,0.9
197,'PLATTSMOUT~2',69.0,1,1,1,1,1.02506649,-7.243383,1.1,0.9,1.1,0.9
198,'PLATTSMOUT~3',69.0,1,1,1,1,1.04144919,-8.152187,1.1,0.9,1.1,0.9
199,'UNION 1 1',69.0,1,1,1,1,1.0366956,-3.571653,1.1,0.9,1.1,0.9
200,'WAVERLY 1 1',69.0,1,1,1,1,1.0151372,-4.48115,1.1,0.9,1.1,0.9
...
0 / END OF BUS DATA BEGIN LOAD DATA
1,'1',1,1,1,1.654,0.205,0.0,0.0,0.0,0.0,1,1,0
4,'1',1,1,1,3.424,1.361,0.0,0.0,0.0,0.0,1,1,0
5,'1',1,1,1,2.372,0.856,0.0,0.0,0.0,0.0,1,1,0
6,'1',1,1,1,2.787,0.973,0.0,0.0,0.0,0.0,1,1,0
8,'1',1,1,1,20.758,4.739,0.0,0.0,0.0,0.0,1,1,0
10,'1',1,1,1,25.23,18.017,0.0,0.0,0.0,0.0,1,1,0
11,'1',1,1,1,25.97,7.928,0.0,0.0,0.0,0.0,1,1,0
14,'1',1,1,1,15.138,4.606,0.0,0.0,0.0,0.0,1,1,0
16,'1',1,1,1,1.066,0.372,0.0,0.0,0.0,0.0,1,1,0
17,'1',1,1,1,1.787,0.132,0.0,0.0,0.0,0.0,1,1,0
18,'1',1,1,1,2.132,0.513,0.0,0.0,0.0,0.0,1,1,0
19,'1',1,1,1,1.584,0.265,0.0,0.0,0.0,0.0,1,1,0
20,'1',1,1,1,0.93,0.398,0.0,0.0,0.0,0.0,1,1,0
21,'1',1,1,1,1.709,0.175,0.0,0.0,0.0,0.0,1,1,0
22,'1',1,1,1,0.93,0.18,0.0,0.0,0.0,0.0,1,1,0
23,'1',1,1,1,2.613,0.333,0.0,0.0,0.0,0.0,1,1,0
25,'1',1,1,1,1.9,0.419,0.0,0.0,0.0,0.0,1,1,0
26,'1',1,1,1,2.656,0.861,0.0,0.0,0.0,0.0,1,1,0
28,'1',1,1,1,2.556,0.135,0.0,0.0,0.0,0.0,1,1,0
30,'1',1,1,1,1.387,0.525,0.0,0.0,0.0,0.0,1,1,0
31,'1',1,1,1,1.074,0.193,0.0,0.0,0.0,0.0,1,1,0
32,'1',1,1,1,3.1,0.594,0.0,0.0,0.0,0.0,1,1,0
33,'1',1,1,1,1.775,0.322,0.0,0.0,0.0,0.0,1,1,0
34,'1',1,1,1,1.596,1.548,0.0,0.0,0.0,0.0,1,1,0
35,'1',1,1,1,1.588,0.075,0.0,0.0,0.0,0.0,1,1,0
37,'1',1,1,1,2.126,1.225,0.0,0.0,0.0,0.0,1,1,0
38,'1',1,1,1,0.953,0.439,0.0,0.0,0.0,0.0,1,1,0
39,'1',1,1,1,1.41,0.349,0.0,0.0,0.0,0.0,1,1,0
40,'1',1,1,1,2.08,0.788,0.0,0.0,0.0,0.0,1,1,0
43,'1',1,1,1,3.15,1.498,0.0,0.0,0.0,0.0,1,1,0
45,'1',1,1,1,1.416,0.489,0.0,0.0,0.0,0.0,1,1,0
46,'1',1,1,1,0.708,0.051,0.0,0.0,0.0,0.0,1,1,0
47,'1',1,1,1,2.053,0.288,0.0,0.0,0.0,0.0,1,1,0
48,'1',1,1,1,1.797,0.111,0.0,0.0,0.0,0.0,1,1,0
49,'1',1,1,1,1.846,0.56,0.0,0.0,0.0,0.0,1,1,0
51,'1',1,1,1,2.263,0.337,0.0,0.0,0.0,0.0,1,1,0
52,'1',1,1,1,2.154,0.321,0.0,0.0,0.0,0.0,1,1,0
53,'1',1,1,1,0.413,0.194,0.0,0.0,0.0,0.0,1,1,0
54,'1',1,1,1,0.956,0.178,0.0,0.0,0.0,0.0,1,1,0
56,'1',1,1,1,0.904,0.346,0.0,0.0,0.0,0.0,1,1,0
58,'1',1,1,1,0.768,0.09,0.0,0.0,0.0,0.0,1,1,0
59,'1',1,1,1,0.582,0.285,0.0,0.0,0.0,0.0,1,1,0
60,'1',1,1,1,2.359,0.988,0.0,0.0,0.0,0.0,1,1,0
61,'1',1,1,1,2.208,0.623,0.0,0.0,0.0,0.0,1,1,0
62,'1',1,1,1,2.196,0.107,0.0,0.0,0.0,0.0,1,1,0
63,'1',1,1,1,1.031,0.534,0.0,0.0,0.0,0.0,1,1,0
65,'1',1,1,1,14.55,4.155,0.0,0.0,0.0,0.0,1,1,0
69,'1',1,1,1,10.174,1.833,0.0,0.0,0.0,0.0,1,1,0
70,'1',1,1,1,8.798,2.167,0.0,0.0,0.0,0.0,1,1,0
71,'1',1,1,1,0.696,0.05,0.0,0.0,0.0,0.0,1,1,0
72,'1',1,1,1,7.026,3.343,0.0,0.0,0.0,0.0,1,1,0
73,'1',1,1,1,2.814,1.434,0.0,0.0,0.0,0.0,1,1,0
74,'1',1,1,1,1.931,0.724,0.0,0.0,0.0,0.0,1,1,0
75,'1',1,1,1,2.46,0.2,0.0,0.0,0.0,0.0,1,1,0
76,'1',1,1,1,2.252,0.368,0.0,0.0,0.0,0.0,1,1,0
77,'1',1,1,1,2.05,0.614,0.0,0.0,0.0,0.0,1,1,0
78,'1',1,1,1,1.02,0.022,0.0,0.0,0.0,0.0,1,1,0
80,'1',1,1,1,3.274,2.251,0.0,0.0,0.0,0.0,1,1,0
82,'1',1,1,1,2.719,0.343,0.0,0.0,0.0,0.0,1,1,0
83,'1',1,1,1,2.82,1.064,0.0,0.0,0.0,0.0,1,1,0
84,'1',1,1,1,1.79,0.619,0.0,0.0,0.0,0.0,1,1,0
85,'1',1,1,1,1.067,0.389,0.0,0.0,0.0,0.0,1,1,0
87,'1',1,1,1,0.894,0.135,0.0,0.0,0.0,0.0,1,1,0
88,'1',1,1,1,0.932,0.306,0.0,0.0,0.0,0.0,1,1,0
91,'1',1,1,1,2.41,1.258,0.0,0.0,0.0,0.0,1,1,0
92,'1',1,1,1,1.296,0.195,0.0,0.0,0.0,0.0,1,1,0
94,'1',1,1,1,1.74,0.698,0.0,0.0,0.0,0.0,1,1,0
95,'1',1,1,1,1.223,0.329,0.0,0.0,0.0,0.0,1,1,0
96,'1',1,1,1,12.313,6.069,0.0,0.0,0.0,0.0,1,1,0
97,'1',1,1,1,7.758,2.347,0.0,0.0,0.0,0.0,1,1,0
101,'1',1,1,1,11.014,1.862,0.0,0.0,0.0,0.0,1,1,0
102,'1',1,1,1,3.403,1.304,0.0,0.0,0.0,0.0,1,1,0
104,'1',1,1,1,1.69,1.537,0.0,0.0,0.0,0.0,1,1,0
106,'1',1,1,1,2.229,1.309,0.0,0.0,0.0,0.0,1,1,0
107,'1',1,1,1,0.382,0.119,0.0,0.0,0.0,0.0,1,1,0
108,'1',1,1,1,1.068,0.304,0.0,0.0,0.0,0.0,1,1,0
110,'1',1,1,1,0.791,0.379,0.0,0.0,0.0,0.0,1,1,0
111,'1',1,1,1,0.99,0.251,0.0,0.0,0.0,0.0,1,1,0
112,'1',1,1,1,0.699,0.381,0.0,0.0,0.0,0.0,1,1,0
113,'1',1,1,1,6.219,1.377,0.0,0.0,0.0,0.0,1,1,0
115,'1',1,1,1,2.433,0.447,0.0,0.0,0.0,0.0,1,1,0
116,'1',1,1,1,0.529,0.065,0.0,0.0,0.0,0.0,1,1,0
117,'1',1,1,1,1.265,0.45,0.0,0.0,0.0,0.0,1,1,0
118,'1',1,1,1,1.269,0.045,0.0,0.0,0.0,0.0,1,1,0
119,'1',1,1,1,4.436,1.074,0.0,0.0,0.0,0.0,1,1,0
120,'1',1,1,1,1.752,0.407,0.0,0.0,0.0,0.0,1,1,0
122,'1',1,1,1,1.769,0.057,0.0,0.0,0.0,0.0,1,1,0
123,'1',1,1,1,2.645,0.813,0.0,0.0,0.0,0.0,1,1,0
124,'1',1,1,1,6.155,3.699,0.0,0.0,0.0,0.0,1,1,0
126,'1',1,1,1,16.387,2.319,0.0,0.0,0.0,0.0,1,1,0
127,'1',1,1,1,18.684,5.1,0.0,0.0,0.0,0.0,1,1,0
128,'1',1,1,1,16.078,10.726,0.0,0.0,0.0,0.0,1,1,0
131,'1',1,1,1,16.456,4.73,0.0,0.0,0.0,0.0,1,1,0
134,'1',1,1,1,13.561,1.631,0.0,0.0,0.0,0.0,1,1,0
136,'1',1,1,1,13.322,4.19,0.0,0.0,0.0,0.0,1,1,0
137,'1',1,1,1,14.468,4.473,0.0,0.0,0.0,0.0,1,1,0
138,'1',1,1,1,10.242,3.504,0.0,0.0,0.0,0.0,1,1,0
139,'1',1,1,1,0.663,0.073,0.0,0.0,0.0,0.0,1,1,0
139,'2',1,1,1,0.441,0.135,0.0,0.0,0.0,0.0,1,1,0
140,'1',1,1,1,1.895,0.698,0.0,0.0,0.0,0.0,1,1,0
142,'1',1,1,1,2.585,0.469,0.0,0.0,0.0,0.0,1,1,0
143,'1',1,1,1,2.253,0.623,0.0,0.0,0.0,0.0,1,1,0
145,'1',1,1,1,2.44,0.596,0.0,0.0,0.0,0.0,1,1,0
147,'1',1,1,1,1.182,0.521,0.0,0.0,0.0,0.0,1,1,0
148,'1',1,1,1,1.182,0.167,0.0,0.0,0.0,0.0,1,1,0
149,'1',1,1,1,0.7,0.132,0.0,0.0,0.0,0.0,1,1,0
151,'1',1,1,1,2.057,0.389,0.0,0.0,0.0,0.0,1,1,0
152,'1',1,1,1,0.69,0.237,0.0,0.0,0.0,0.0,1,1,0
152,'2',1,1,1,0.505,0.248,0.0,0.0,0.0,0.0,1,1,0
154,'1',1,1,1,1.068,0.621,0.0,0.0,0.0,0.0,1,1,0
156,'1',1,1,1,0.978,0.246,0.0,0.0,0.0,0.0,1,1,0
156,'2',1,1,1,1.393,0.267,0.0,0.0,0.0,0.0,1,1,0
157,'1',1,1,1,2.093,0.947,0.0,0.0,0.0,0.0,1,1,0
158,'1',1,1,1,1.38,0.178,0.0,0.0,0.0,0.0,1,1,0
160,'1',1,1,1,2.3,0.796,0.0,0.0,0.0,0.0,1,1,0
161,'1',1,1,1,2.462,0.811,0.0,0.0,0.0,0.0,1,1,0
162,'1',1,1,1,2.865,1.155,0.0,0.0,0.0,0.0,1,1,0
165,'1',1,1,1,4.623,0.809,0.0,0.0,0.0,0.0,1,1,0
166,'1',1,1,1,2.986,2.373,0.0,0.0,0.0,0.0,1,1,0
167,'1',1,1,1,1.86,0.701,0.0,0.0,0.0,0.0,1,1,0
168,'1',1,1,1,1.158,0.174,0.0,0.0,0.0,0.0,1,1,0
169,'1',1,1,1,21.41,3.069,0.0,0.0,0.0,0.0,1,1,0
170,'1',1,1,1,20.674,4.687,0.0,0.0,0.0,0.0,1,1,0
173,'1',1,1,1,26.953,25.68,0.0,0.0,0.0,0.0,1,1,0
175,'1',1,1,1,23.398,8.965,0.0,0.0,0.0,0.0,1,1,0
176,'1',1,1,1,4.409,0.485,0.0,0.0,0.0,0.0,1,1,0
177,'1',1,1,1,3.195,1.485,0.0,0.0,0.0,0.0,1,1,0
178,'1',1,1,1,3.307,2.372,0.0,0.0,0.0,0.0,1,1,0
179,'1',1,1,1,0.87,0.785,0.0,0.0,0.0,0.0,1,1,0
180,'1',1,1,1,0.522,0.032,0.0,0.0,0.0,0.0,1,1,0
181,'1',1,1,1,0.942,0.216,0.0,0.0,0.0,0.0,1,1,0
182,'1',1,1,1,4.13,2.33,0.0,0.0,0.0,0.0,1,1,0
183,'1',1,1,1,3.874,0.933,0.0,0.0,0.0,0.0,1,1,0
184,'1',1,1,1,3.592,0.167,0.0,0.0,0.0,0.0,1,1,0
185,'1',1,1,1,5.19,2.848,0.0,0.0,0.0,0.0,1,1,0
186,'1',1,1,1,1.613,0.049,0.0,0.0,0.0,0.0,1,1,0
187,'1',1,1,1,3.28,1.147,0.0,0.0,0.0,0.0,1,1,0
187,'2',1,1,1,0.716,0.194,0.0,0.0,0.0,0.0,1,1,0
189,'1',1,1,1,1.968,0.583,0.0,0.0,0.0,0.0,1,1,0
191,'1',1,1,1,6.586,3.18,0.0,0.0,0.0,0.0,1,1,0
192,'1',1,1,1,2.568,0.171,0.0,0.0,0.0,0.0,1,1,0
193,'1',1,1,1,4.066,0.291,0.0,0.0,0.0,0.0,1,1,0
194,'1',1,1,1,0.857,0.285,0.0,0.0,0.0,0.0,1,1,0
195,'1',1,1,1,0.618,0.134,0.0,0.0,0.0,0.0,1,1,0
195,'2',1,1,1,0.87,0.307,0.0,0.0,0.0,0.0,1,1,0
196,'1',1,1,1,11.535,1.119,0.0,0.0,0.0,0.0,1,1,0
197,'1',1,1,1,17.487,12.113,0.0,0.0,0.0,0.0,1,1,0
198,'1',1,1,1,15.86,7.645,0.0,0.0,0.0,0.0,1,1,0
199,'1',1,1,1,0.648,0.287,0.0,0.0,0.0,0.0,1,1,0
199,'2',1,1,1,0.63,0.246,0.0,0.0,0.0,0.0,1,1,0
200,'1',1,1,1,4.548,2.963,0.0,0.0,0.0,0.0,1,1,0
200,'2',1,1,1,0.3,0.07,0.0,0.0,0.0,0.0,1,1,0
201,'1',1,1,1,3.516,0.498,0.0,0.0,0.0,0.0,1,1,0
201,'2',1,1,1,0.692,0.063,0.0,0.0,0.0,0.0,1,1,0
203,'1',1,1,1,2.934,1.142,0.0,0.0,0.0,0.0,1,1,0
205,'1',1,1,1,3.782,0.727,0.0,0.0,0.0,0.0,1,1,0
206,'1',1,1,1,2.73,1.456,0.0,0.0,0.0,0.0,1,1,0
207,'1',1,1,1,0.56,0.248,0.0,0.0,0.0,0.0,1,1,0
208,'1',1,1,1,1.422,0.398,0.0,0.0,0.0,0.0,1,1,0
209,'1',1,1,1,1.422,0.539,0.0,0.0,0.0,0.0,1,1,0
209,'2',1,1,1,1.422,0.03,0.0,0.0,0.0,0.0,1,1,0
210,'1',1,1,1,2.232,0.657,0.0,0.0,0.0,0.0,1,1,0
212,'1',1,1,1,3.168,0.302,0.0,0.0,0.0,0.0,1,1,0
213,'1',1,1,1,2.298,0.563,0.0,0.0,0.0,0.0,1,1,0
215,'1',1,1,1,2.82,0.363,0.0,0.0,0.0,0.0,1,1,0
216,'1',1,1,1,1.206,0.329,0.0,0.0,0.0,0.0,1,1,0
217,'1',1,1,1,2.529,0.619,0.0,0.0,0.0,0.0,1,1,0
218,'1',1,1,1,1.27,0.564,0.0,0.0,0.0,0.0,1,1,0
219,'1',1,1,1,0.801,0.473,0.0,0.0,0.0,0.0,1,1,0
220,'1',1,1,1,2.12,0.469,0.0,0.0,0.0,0.0,1,1,0
222,'1',1,1,1,1.254,0.847,0.0,0.0,0.0,0.0,1,1,0
223,'1',1,1,1,1.678,0.261,0.0,0.0,0.0,0.0,1,1,0
224,'1',1,1,1,3.106,0.676,0.0,0.0,0.0,0.0,1,1,0
225,'1',1,1,1,1.211,0.631,0.0,0.0,0.0,0.0,1,1,0
227,'1',1,1,1,1.132,0.184,0.0,0.0,0.0,0.0,1,1,0
228,'1',1,1,1,0.888,0.495,0.0,0.0,0.0,0.0,1,1,0
229,'1',1,1,1,12.126,1.066,0.0,0.0,0.0,0.0,1,1,0
230,'1',1,1,1,13.521,7.511,0.0,0.0,0.0,0.0,1,1,0
231,'1',1,1,1,15.958,1.414,0.0,0.0,0.0,0.0,1,1,0
233,'1',1,1,1,10.986,2.353,0.0,0.0,0.0,0.0,1,1,0
235,'1',1,1,1,0.56,0.319,0.0,0.0,0.0,0.0,1,1,0
237,'1',1,1,1,0.87,0.414,0.0,0.0,0.0,0.0,1,1,0
238,'1',1,1,1,3.44,1.53,0.0,0.0,0.0,0.0,1,1,0
240,'1',1,1,1,1.974,0.26,0.0,0.0,0.0,0.0,1,1,0
240,'2',1,1,1,0.542,0.135,0.0,0.0,0.0,0.0,1,1,0
241,'1',1,1,1,1.974,0.499,0.0,0.0,0.0,0.0,1,1,0
243,'1',1,1,1,0.806,0.594,0.0,0.0,0.0,0.0,1,1,0
244,'1',1,1,1,1.122,0.106,0.0,0.0,0.0,0.0,1,1,0
245,'1',1,1,1,0.744,0.114,0.0,0.0,0.0,0.0,1,1,0
246,'1',1,1,1,0.744,0.105,0.0,0.0,0.0,0.0,1,1,0
247,'1',1,1,1,0.808,0.226,0.0,0.0,0.0,0.0,1,1,0
248,'1',1,1,1,1.23,0.358,0.0,0.0,0.0,0.0,1,1,0
250,'1',1,1,1,2.203,0.286,0.0,0.0,0.0,0.0,1,1,0
253,'1',1,1,1,3.24,1.319,0.0,0.0,0.0,0.0,1,1,0
254,'1',1,1,1,2.524,1.033,0.0,0.0,0.0,0.0,1,1,0
256,'1',1,1,1,0.772,0.223,0.0,0.0,0.0,0.0,1,1,0
257,'1',1,1,1,0.6,0.329,0.0,0.0,0.0,0.0,1,1,0
258,'1',1,1,1,1.13,0.062,0.0,0.0,0.0,0.0,1,1,0
261,'1',1,1,1,0.678,0.239,0.0,0.0,0.0,0.0,1,1,0
261,'2',1,1,1,0.682,0.21,0.0,0.0,0.0,0.0,1,1,0
...
0 / END OF LOAD DATA BEGIN FIXED SHUNT DATA
0 / END OF FIXED SHUNT DATA BEGIN GENERATOR DATA
1239,'1',98.258,17.659,55.38,-38.77,1.04,0,130.56,0.0,1.0,0.0,0.0,1.0,1,100.0,108.8,29.3,1,1.0,0,1.0,0,1.0,0,1.0,0,1.0
1243,'1',51.206,-8.59,26.42,-18.49,1.04,0,68.04,0.0,1.0,0.0,0.0,1.0,1,100.0,56.7,18.43,1,1.0,0,1.0,0,1.0,0,1.0,0,1.0
1247,'1',79.229,18.252,44.66,-31.26,1.04,0,105.28,0.0,1.0,0.0,0.0,1.0,1,100.0,87.73,19.92,1,1.0,0,1.0,0,1.0,0,1.0,0,1.0
1248,'1',79.229,19.028,44.66,-31.26,1.04,0,105.28,0.0,1.0,0.0,0.0,1.0,1,100.0,87.73,20.01,1,1.0,0,1.0,0,1.0,0,1.0,0,1.0
1249,'1',0.0,0.0,44.66,-31.26,1.04,0,105.28,0.0,1.0,0.0,0.0,1.0,0,100.0,87.73,18.13,1,1.0,0,1.0,0,1.0,0,1.0,0,1.0
1253,'1',1.135,-0.182,0.34,-0.34,1.04,0,1.44,0.0,1.0,0.0,0.0,1.0,1,100.0,1.135,0.0,1,1.0,0,1.0,0,1.0,0,1.0,0,1.0
1253,'2',1.185,-0.182,0.36,-0.36,1.04,0,1.44,0.0,1.0,0.0,0.0,1.0,1,100.0,1.2,0.0,1,1.0,0,1.0,0,1.0,0,1.0,0,1.0
1256,'1',3.733,1.158,1.158,-1.158,1.04,0,12.6,0.0,1.0,0.0,0.0,1.0,1,100.0,3.86,0.0,1,1.0,0,1.0,0,1.0,0,1.0,1,1.0
1259,'1',60.364,8.609,34.02,-23.81,1.04,0,80.208,0.0,1.0,0.0,0.0,1.0,1,100.0,66.84,25.01,1,1.0,0,1.0,0,1.0,0,1.0,0,1.0
1260,'1',60.364,7.06,34.02,-23.81,1.04,0,80.208,0.0,1.0,0.0,0.0,1.0,1,100.0,66.84,8.44,1,1.0,0,1.0,0,1.0,0,1.0,0,1.0
1261,'1',60.364,7.842,34.02,-23.81,1.04,0,80.208,0.0,1.0,0.0,0.0,1.0,1,100.0,66.84,13.17,1,1.0,0,1.0,0,1.0,0,1.0,0,1.0
1262,'1',0.0,0.0,34.02,-23.81,1.04,0,80.208,0.0,1.0,0.0,0.0,1.0,0,100.0,66.84,21.55,1,1.0,0,1.0,0,1.0,0,1.0,0,1.0
1263,'1',60.364,6.186,34.02,-23.81,1.04,0,80.208,0.0,1.0,0.0,0.0,1.0,1,100.0,66.84,29.81,1,1.0,0,1.0,0,1.0,0,1.0,0,1.0
1268,'1',459.765,20.596,317.49,-222.24,1.04,1265,817.56,0.0,1.0,0.0,0.0,1.0,1,100.0,681.3,282.42,1,1.0,0,1.0,0,1.0,0,1.0,0,1.0
1269,'1',389.635,20.596,317.49,-222.24,1.04,1265,817.56,0.0,1.0,0.0,0.0,1.0,1,100.0,681.3,212.29,1,1.0,0,1.0,0,1.0,0,1.0,0,1.0
1271,'1',0.0,0.0,0.7,-0.49,1.04,0,1.8,0.0,1.0,0.0,0.0,1.0,0,100.0,1.5,0.59,1,1.0,0,1.0,0,1.0,0,1.0,0,1.0
1271,'2',4.064,2.1,2.1,-1.47,1.04,0,5.4,0.0,1.0,0.0,0.0,1.0,1,100.0,4.5,1.87,1,1.0,0,1.0,0,1.0,0,1.0,0,1.0
1273,'1',1.924,1.08,1.08,-0.76,1.04,0,2.55,0.0,1.0,0.0,0.0,1.0,1,100.0,2.13,0.88,1,1.0,0,1.0,0,1.0,0,1.0,0,1.0
1273,'2',1.924,1.08,1.08,-0.76,1.04,0,2.55,0.0,1.0,0.0,0.0,1.0,1,100.0,2.13,0.56,1,1.0,0,1.0,0,1.0,0,1.0,0,1.0
1274,'1',1.924,0.897,1.08,-0.76,1.04,0,2.55,0.0,1.0,0.0,0.0,1.0,1,100.0,2.13,0.49,1,1.0,0,1.0,0,1.0,0,1.0,0,1.0
1275,'1',0.0,0.0,1.08,-0.76,1.04,0,2.55,0.0,1.0,0.0,0.0,1.0,0,100.0,2.13,1.06,1,1.0,0,1.0,0,1.0,0,1.0,0,1.0
1278,'1',24.384,13.332,13.74,-9.62,1.04,0,32.4,0.0,1.0,0.0,0.0,1.0,1,100.0,27.0,4.91,1,1.0,0,1.0,0,1.0,0,1.0,0,1.0
1281,'1',5.605,3.68,3.68,-2.58,1.04,0,9.48,0.0,1.0,0.0,0.0,1.0,1,100.0,7.9,3.55,1,1.0,0,1.0,0,1.0,0,1.0,0,1.0
1284,'1',0.282,0.09,0.09,-0.09,1.04,0,1.8,0.0,1.0,0.0,0.0,1.0,1,100.0,0.3,0.0,1,1.0,0,1.0,0,1.0,0,1.0,1,1.0
1284,'2',0.562,0.174,0.174,-0.174,1.04,0,1.8,0.0,1.0,0.0,0.0,1.0,1,100.0,0.58,0.0,1,1.0,0,1.0,0,1.0,0,1.0,1,1.0
1287,'1',29.504,-0.322,16.63,-11.64,1.04,0,39.2,0.0,1.0,0.0,0.0,1.0,1,100.0,32.67,4.0,1,1.0,0,1.0,0,1.0,0,1.0,0,1.0
1287,'2',29.504,-0.322,16.63,-11.64,1.04,0,39.2,0.0,1.0,0.0,0.0,1.0,1,100.0,32.67,5.16,1,1.0,0,1.0,0,1.0,0,1.0,0,1.0
1288,'1',29.504,-0.201,16.63,-11.64,1.04,0,39.2,0.0,1.0,0.0,0.0,1.0,1,100.0,32.67,6.36,1,1.0,0,1.0,0,1.0,0,1.0,0,1.0
1292,'1',78.46,-13.98,53.29,-37.3,1.04,0,137.22,0.0,1.0,0.0,0.0,1.0,1,100.0,114.35,48.69,1,1.0,0,1.0,0,1.0,0,1.0,0,1.0
1293,'1',57.98,-9.355,53.29,-37.3,1.04,0,137.22,0.0,1.0,0.0,0.0,1.0,1,100.0,114.35,28.21,1,1.0,0,1.0,0,1.0,0,1.0,0,1.0
1297,'1',3.703,0.326,2.09,-1.46,1.04,0,4.92,0.0,1.0,0.0,0.0,1.0,1,100.0,4.1,0.92,1,1.0,0,1.0,0,1.0,0,1.0,0,1.0
1297,'2',3.703,0.326,2.09,-1.46,1.04,0,4.92,0.0,1.0,0.0,0.0,1.0,1,100.0,4.1,1.14,1,1.0,0,1.0,0,1.0,0,1.0,0,1.0
1298,'1',3.703,0.702,2.09,-1.46,1.04,0,4.92,0.0,1.0,0.0,0.0,1.0,1,100.0,4.1,0.81,1,1.0,0,1.0,0,1.0,0,1.0,0,1.0
1298,'2',3.703,0.702,2.09,-1.46,1.04,0,4.92,0.0,1.0,0.0,0.0,1.0,1,100.0,4.1,1.13,1,1.0,0,1.0,0,1.0,0,1.0,0,1.0
1299,'1',0.0,0.0,2.09,-1.46,1.04,0,4.92,0.0,1.0,0.0,0.0,1.0,0,100.0,4.1,1.8,1,1.0,0,1.0,0,1.0,0,1.0,0,1.0
1299,'2',3.703,1.819,2.09,-1.46,1.04,0,4.92,0.0,1.0,0.0,0.0,1.0,1,100.0,4.1,1.08,1,1.0,0,1.0,0,1.0,0,1.0,0,1.0
1300,'1',0.807,-0.242,0.242,-0.242,1.04,0,1.8,0.0,1.0,0.0,0.0,1.0,1,100.0,0.807,0.0,1,1.0,0,1.0,0,1.0,0,1.0,0,1.0
1300,'2',19.227,-0.372,5.768,-5.768,1.04,0,27.0,0.0,1.0,0.0,0.0,1.0,1,100.0,19.227,0.0,1,1.0,0,1.0,0,1.0,0,1.0,0,1.0
1303,'1',0.0,0.0,0.3,-0.21,1.04,0,0.78,0.0,1.0,0.0,0.0,1.0,0,100.0,0.65,0.28,1,1.0,0,1.0,0,1.0,0,1.0,0,1.0
1303,'2',0.587,0.006,0.3,-0.21,1.04,0,0.78,0.0,1.0,0.0,0.0,1.0,1,100.0,0.65,0.12,1,1.0,0,1.0,0,1.0,0,1.0,0,1.0
1304,'1',0.542,-0.012,0.28,-0.2,1.04,0,0.72,0.0,1.0,0.0,0.0,1.0,1,100.0,0.6,0.1,1,1.0,0,1.0,0,1.0,0,1.0,0,1.0
1304,'2',0.243,-0.012,0.13,-0.09,1.04,0,0.33,0.0,1.0,0.0,0.0,1.0,1,100.0,0.27,0.01,1,1.0,0,1.0,0,1.0,0,1.0,0,1.0
1305,'1',0.243,-0.002,0.13,-0.09,1.04,0,0.33,0.0,1.0,0.0,0.0,1.0,1,100.0,0.27,0.01,1,1.0,0,1.0,0,1.0,0,1.0,0,1.0
1305,'2',0.243,-0.002,0.13,-0.09,1.04,0,0.33,0.0,1.0,0.0,0.0,1.0,1,100.0,0.27,0.01,1,1.0,0,1.0,0,1.0,0,1.0,0,1.0
1306,'1',0.021,-0.001,0.03,-0.02,1.04,0,0.33,0.0,1.0,0.0,0.0,1.0,1,100.0,0.04,0.01,1,1.0,0,1.0,0,1.0,0,1.0,0,1.0
1310,'1',0.704,0.4,0.4,-0.28,1.04,0,0.94,0.0,1.0,0.0,0.0,1.0,1,100.0,0.78,0.11,1,1.0,0,1.0,0,1.0,0,1.0,0,1.0
1310,'2',0.0,0.0,0.4,-0.28,1.04,0,0.94,0.0,1.0,0.0,0.0,1.0,0,100.0,0.78,0.1,1,1.0,0,1.0,0,1.0,0,1.0,0,1.0
1311,'1',0.704,0.192,0.4,-0.28,1.04,0,0.94,0.0,1.0,0.0,0.0,1.0,1,100.0,0.78,0.39,1,1.0,0,1.0,0,1.0,0,1.0,0,1.0
1311,'2',0.704,0.192,0.4,-0.28,1.04,0,0.94,0.0,1.0,0.0,0.0,1.0,1,100.0,0.78,0.12,1,1.0,0,1.0,0,1.0,0,1.0,0,1.0
1312,'1',0.704,0.4,0.4,-0.28,1.04,0,0.94,0.0,1.0,0.0,0.0,1.0,1,100.0,0.78,0.16,1,1.0,0,1.0,0,1.0,0,1.0,0,1.0
1312,'2',0.0,0.0,0.4,-0.28,1.04,0,0.94,0.0,1.0,0.0,0.0,1.0,0,100.0,0.78,0.21,1,1.0,0,1.0,0,1.0,0,1.0,0,1.0
1315,'1',54.638,15.102,30.79,-21.55,1.04,0,72.6,0.0,1.0,0.0,0.0,1.0,1,100.0,60.5,25.17,1,1.0,0,1.0,0,1.0,0,1.0,0,1.0
1319,'1',74.389,-21.881,41.92,-29.34,1.04,0,98.84,0.0,1.0,0.0,0.0,1.0,1,100.0,82.37,10.07,1,1.0,0,1.0,0,1.0,0,1.0,0,1.0
1320,'1',0.0,0.0,41.92,-29.34,1.04,0,98.84,0.0,1.0,0.0,0.0,1.0,0,100.0,82.37,11.18,1,1.0,0,1.0,0,1.0,0,1.0,0,1.0
1321,'1',74.389,-25.102,41.92,-29.34,1.04,0,98.84,0.0,1.0,0.0,0.0,1.0,1,100.0,82.37,14.53,1,1.0,0,1.0,0,1.0,0,1.0,0,1.0
1324,'1',0.0,0.0,1.63,-1.14,1.04,0,4.2,0.0,1.0,0.0,0.0,1.0,0,100.0,3.5,1.01,1,1.0,0,1.0,0,1.0,0,1.0,0,1.0
1326,'1',5.664,1.699,1.699,-1.699,1.04,0,48.6,0.0,1.0,0.0,0.0,1.0,1,100.0,5.664,0.0,1,1.0,0,1.0,0,1.0,0,1.0,1,1.0
1329,'1',0.747,0.231,0.231,-0.231,1.04,0,2.28,0.0,1.0,0.0,0.0,1.0,1,100.0,0.77,0.0,1,1.0,0,1.0,0,1.0,0,1.0,1,1.0
1332,'1',0.722,0.282,0.37,-0.26,1.04,0,0.96,0.0,1.0,0.0,0.0,1.0,1,100.0,0.8,0.1,1,1.0,0,1.0,0,1.0,0,1.0,0,1.0
1332,'2',0.722,0.282,0.37,-0.26,1.04,0,0.96,0.0,1.0,0.0,0.0,1.0,1,100.0,0.8,0.39,1,1.0,0,1.0,0,1.0,0,1.0,0,1.0
1333,'1',0.722,0.088,0.37,-0.26,1.04,0,0.96,0.0,1.0,0.0,0.0,1.0,1,100.0,0.8,0.3,1,1.0,0,1.0,0,1.0,0,1.0,0,1.0
1338,'1',28.342,1.416,20.19,-14.13,1.04,0,52.0,0.0,1.0,0.0,0.0,1.0,1,100.0,43.33,17.06,1,1.0,0,1.0,0,1.0,0,1.0,0,1.0
1339,'1',24.912,-9.622,20.19,-14.13,1.04,0,52.0,0.0,1.0,0.0,0.0,1.0,1,100.0,43.33,13.63,1,1.0,0,1.0,0,1.0,0,1.0,0,1.0
1339,'2',0.0,0.0,20.19,-14.13,1.04,0,52.0,0.0,1.0,0.0,0.0,1.0,0,100.0,43.33,10.32,1,1.0,0,1.0,0,1.0,0,1.0,0,1.0
1341,'1',0.0,0.0,0.94,-0.66,1.04,0,2.22,0.0,1.0,0.0,0.0,1.0,0,100.0,1.85,0.6,1,1.0,0,1.0,0,1.0,0,1.0,0,1.0
1342,'1',0.0,0.0,0.46,-0.32,1.04,0,1.08,0.0,1.0,0.0,0.0,1.0,0,100.0,0.9,0.37,1,1.0,0,1.0,0,1.0,0,1.0,0,1.0
1342,'2',0.0,0.0,0.94,-0.66,1.04,0,2.22,0.0,1.0,0.0,0.0,1.0,0,100.0,1.85,0.45,1,1.0,0,1.0,0,1.0,0,1.0,0,1.0
1342,'3',0.0,0.0,0.94,-0.66,1.04,0,2.22,0.0,1.0,0.0,0.0,1.0,0,100.0,1.85,0.55,1,1.0,0,1.0,0,1.0,0,1.0,0,1.0
1342,'4',1.671,-0.178,0.94,-0.66,1.04,0,2.22,0.0,1.0,0.0,0.0,1.0,1,100.0,1.85,0.64,1,1.0,0,1.0,0,1.0,0,1.0,0,1.0
1345,'1',5.419,3.05,3.05,-2.14,1.04,0,7.2,0.0,1.0,0.0,0.0,1.0,1,100.0,6.0,2.01,1,1.0,0,1.0,0,1.0,0,1.0,0,1.0
1347,'1',51.206,-18.49,26.42,-18.49,1.04,0,68.04,0.0,1.0,0.0,0.0,1.0,1,100.0,56.7,28.0,1,1.0,0,1.0,0,1.0,0,1.0,0,1.0
1350,'1',36.124,8.825,20.36,-14.25,1.04,0,48.0,0.0,1.0,0.0,0.0,1.0,1,100.0,40.0,5.01,1,1.0,0,1.0,0,1.0,0,1.0,0,1.0
1352,'1',0.0,0.0,30.29,-21.2,1.04,0,78.0,0.0,1.0,0.0,0.0,1.0,0,100.0,65.0,16.8,1,1.0,0,1.0,0,1.0,0,1.0,0,1.0
1352,'2',58.702,30.29,30.29,-21.2,1.04,0,78.0,0.0,1.0,0.0,0.0,1.0,1,100.0,65.0,8.77,1,1.0,0,1.0,0,1.0,0,1.0,0,1.0
1354,'1',33.302,26.665,33.27,-23.29,1.04,0,85.68,0.0,1.0,0.0,0.0,1.0,1,100.0,71.4,14.72,1,1.0,0,1.0,0,1.0,0,1.0,0,1.0
1357,'1',51.206,18.363,28.86,-20.2,1.04,0,68.04,0.0,1.0,0.0,0.0,1.0,1,100.0,56.7,27.69,1,1.0,0,1.0,0,1.0,0,1.0,0,1.0
1361,'1',44.911,10.163,25.31,-17.72,1.04,0,59.68,0.0,1.0,0.0,0.0,1.0,1,100.0,49.73,6.58,1,1.0,0,1.0,0,1.0,0,1.0,0,1.0
1362,'1',0.0,0.0,25.31,-17.72,1.04,0,59.68,0.0,1.0,0.0,0.0,1.0,0,100.0,49.73,7.85,1,1.0,0,1.0,0,1.0,0,1.0,0,1.0
1362,'2',44.911,23.712,25.31,-17.72,1.04,0,59.68,0.0,1.0,0.0,0.0,1.0,1,100.0,49.73,23.11,1,1.0,0,1.0,0,1.0,0,1.0,0,1.0
1365,'1',1.445,0.81,0.81,-0.57,1.04,0,1.92,0.0,1.0,0.0,0.0,1.0,1,100.0,1.6,0.48,1,1.0,0,1.0,0,1.0,0,1.0,0,1.0
1365,'2',1.445,0.81,0.81,-0.57,1.04,0,1.92,0.0,1.0,0.0,0.0,1.0,1,100.0,1.6,0.21,1,1.0,0,1.0,0,1.0,0,1.0,0,1.0
1365,'3',1.445,0.81,0.81,-0.57,1.04,0,1.92,0.0,1.0,0.0,0.0,1.0,1,100.0,1.6,0.69,1,1.0,0,1.0,0,1.0,0,1.0,0,1.0
1365,'4',1.445,0.81,0.81,-0.57,1.04,0,1.92,0.0,1.0,0.0,0.0,1.0,1,100.0,1.6,0.56,1,1.0,0,1.0,0,1.0,0,1.0,0,1.0
1365,'5',1.445,0.81,0.81,-0.57,1.04,0,1.92,0.0,1.0,0.0,0.0,1.0,1,100.0,1.6,0.7,1,1.0,0,1.0,0,1.0,0,1.0,0,1.0
1365,'6',1.445,0.81,0.81,-0.57,1.04,0,1.92,0.0,1.0,0.0,0.0,1.0,1,100.0,1.6,0.38,1,1.0,0,1.0,0,1.0,0,1.0,0,1.0
1368,'1',1.806,1.02,1.02,-0.71,1.04,0,2.4,0.0,1.0,0.0,0.0,1.0,1,100.0,2.0,0.31,1,1.0,0,1.0,0,1.0,0,1.0,0,1.0
1368,'2',1.806,1.02,1.02,-0.71,1.04,0,2.4,0.0,1.0,0.0,0.0,1.0,1,100.0,2.0,0.95,1,1.0,0,1.0,0,1.0,0,1.0,0,1.0
1370,'1',0.0,0.0,2.33,-1.63,1.04,0,6.0,0.0,1.0,0.0,0.0,1.0,0,100.0,5.0,1.05,1,1.0,0,1.0,0,1.0,0,1.0,0,1.0
1372,'1',3.278,1.518,1.69,-1.18,1.04,0,4.36,0.0,1.0,0.0,0.0,1.0,1,100.0,3.63,1.36,1,1.0,0,1.0,0,1.0,0,1.0,0,1.0
1372,'2',0.0,0.0,1.69,-1.18,1.04,0,4.36,0.0,1.0,0.0,0.0,1.0,0,100.0,3.63,1.21,1,1.0,0,1.0,0,1.0,0,1.0,0,1.0
1373,'1',0.09,0.05,0.05,-0.03,1.04,0,0.12,0.0,1.0,0.0,0.0,1.0,1,100.0,0.1,0.01,1,1.0,0,1.0,0,1.0,0,1.0,0,1.0
1373,'2',3.278,1.69,1.69,-1.18,1.04,0,4.36,0.0,1.0,0.0,0.0,1.0,1,100.0,3.63,1.03,1,1.0,0,1.0,0,1.0,0,1.0,0,1.0
1373,'3',3.278,1.69,1.69,-1.18,1.04,0,4.36,0.0,1.0,0.0,0.0,1.0,1,100.0,3.63,1.08,1,1.0,0,1.0,0,1.0,0,1.0,0,1.0
1373,'4',0.0,0.0,1.69,-1.18,1.04,0,4.36,0.0,1.0,0.0,0.0,1.0,0,100.0,3.63,0.76,1,1.0,0,1.0,0,1.0,0,1.0,0,1.0
1373,'5',0.0,0.0,1.69,-1.18,1.04,0,4.36,0.0,1.0,0.0,0.0,1.0,0,100.0,3.63,1.39,1,1.0,0,1.0,0,1.0,0,1.0,0,1.0
1377,'1',453.359,263.27,342.86,-240.0,1.04,1375,602.4,0.0,1.0,0.0,0.0,1.0,1,100.0,502.0,61.46,1,1.0,0,1.0,0,1.0,0,1.0,0,1.0
1380,'1',11.399,-3.42,3.42,-3.42,1.04,0,97.2,0.0,1.0,0.0,0.0,1.0,1,100.0,11.399,0.0,1,1.0,0,1.0,0,1.0,0,1.0,1,1.0
1382,'1',3.089,-0.532,1.74,-1.22,1.04,0,4.1,0.0,1.0,0.0,0.0,1.0,1,100.0,3.42,0.85,1,1.0,0,1.0,0,1.0,0,1.0,0,1.0
1382,'2',3.089,-0.532,1.74,-1.22,1.04,0,4.1,0.0,1.0,0.0,0.0,1.0,1,100.0,3.42,0.98,1,1.0,0,1.0,0,1.0,0,1.0,0,1.0
1382,'3',3.089,-0.532,1.74,-1.22,1.04,0,4.1,0.0,1.0,0.0,0.0,1.0,1,100.0,3.42,1.19,1,1.0,0,1.0,0,1.0,0,1.0,0,1.0
1382,'4',3.089,-0.532,1.74,-1.22,1.04,0,4.1,0.0,1.0,0.0,0.0,1.0,1,100.0,3.42,1.34,1,1.0,0,1.0,0,1.0,0,1.0,0,1.0
1382,'5',3.089,-0.532,1.74,-1.22,1.04,0,4.1,0.0,1.0,0.0,0.0,1.0,1,100.0,3.42,1.07,1,1.0,0,1.0,0,1.0,0,1.0,0,1.0
1382,'6',3.089,-0.532,1.74,-1.22,1.04,0,4.1,0.0,1.0,0.0,0.0,1.0,1,100.0,3.42,1.64,1,1.0,0,1.0,0,1.0,0,1.0,0,1.0
1385,'1',12.941,0.587,3.93,-3.93,1.04,0,15.72,0.0,1.0,0.0,0.0,1.0,1,100.0,13.1,0.0,1,1.0,0,1.0,0,1.0,0,1.0,0,1.0
1386,'1',12.941,1.488,3.93,-3.93,1.04,0,15.72,0.0,1.0,0.0,0.0,1.0,1,100.0,13.1,0.0,1,1.0,0,1.0,0,1.0,0,1.0,0,1.0
1390,'1',146.106,87.8,87.8,-61.46,1.04,1388,207.0,0.0,1.0,0.0,0.0,1.0,1,100.0,172.5,49.53,1,1.0,0,1.0,0,1.0,0,1.0,0,1.0
1392,'1',0.0,0.0,87.8,-61.46,1.04,1388,100.0,0.0,1.0,0.0,0.0,1.0,0,100.0,172.5,77.69,1,1.0,0,1.0,0,1.0,0,1.0,0,1.0
1396,'1',2.539,0.762,0.762,-0.762,1.04,0,3.36,0.0,1.0,0.0,0.0,1.0,1,100.0,2.539,0.0,1,1.0,0,1.0,0,1.0,0,1.0,0,1.0
1397,'1',2.766,0.84,0.84,-0.84,1.04,0,3.36,0.0,1.0,0.0,0.0,1.0,1,100.0,2.8,0.0,1,1.0,0,1.0,0,1.0,0,1.0,0,1.0
1397,'2',2.097,0.629,0.629,-0.629,1.04,0,3.36,0.0,1.0,0.0,0.0,1.0,1,100.0,2.097,0.0,1,1.0,0,1.0,0,1.0,0,1.0,0,1.0
1398,'1',0.093,0.023,0.028,-0.028,1.04,0,0.12,0.0,1.0,0.0,0.0,1.0,1,100.0,0.093,0.0,1,1.0,0,1.0,0,1.0,0,1.0,0,1.0
1398,'2',0.085,0.023,0.026,-0.026,1.04,0,0.12,0.0,1.0,0.0,0.0,1.0,1,100.0,0.085,0.0,1,1.0,0,1.0,0,1.0,0,1.0,0,1.0
1400,'1',19.868,-2.18,11.2,-7.84,1.04,0,26.4,0.0,1.0,0.0,0.0,1.0,1,100.0,22.0,2.69,1,1.0,0,1.0,0,1.0,0,1.0,0,1.0
1402,'1',1.101,0.62,0.62,-0.43,1.04,0,1.47,0.0,1.0,0.0,0.0,1.0,1,100.0,1.22,0.36,1,1.0,0,1.0,0,1.0,0,1.0,0,1.0
1402,'2',1.101,0.62,0.62,-0.43,1.04,0,1.47,0.0,1.0,0.0,0.0,1.0,1,100.0,1.22,0.15,1,1.0,0,1.0,0,1.0,0,1.0,0,1.0
1402,'3',1.101,0.62,0.62,-0.43,1.04,0,1.47,0.0,1.0,0.0,0.0,1.0,1,100.0,1.22,0.35,1,1.0,0,1.0,0,1.0,0,1.0,0,1.0
1402,'4',1.101,0.62,0.62,-0.43,1.04,0,1.47,0.0,1.0,0.0,0.0,1.0,1,100.0,1.22,0.16,1,1.0,0,1.0,0,1.0,0,1.0,0,1.0
1405,'1',1.31,0.68,0.68,-0.48,1.04,0,1.74,0.0,1.0,0.0,0.0,1.0,1,100.0,1.45,0.18,1,1.0,0,1.0,0,1.0,0,1.0,0,1.0
1405,'2',1.31,0.68,0.68,-0.48,1.04,0,1.74,0.0,1.0,0.0,0.0,1.0,1,100.0,1.45,0.72,1,1.0,0,1.0,0,1.0,0,1.0,0,1.0
1406,'1',1.31,0.68,0.68,-0.48,1.04,0,1.74,0.0,1.0,0.0,0.0,1.0,1,100.0,1.45,0.19,1,1.0,0,1.0,0,1.0,0,1.0,0,1.0
1406,'2',1.31,0.68,0.68,-0.48,1.04,0,1.74,0.0,1.0,0.0,0.0,1.0,1,100.0,1.45,0.63,1,1.0,0,1.0,0,1.0,0,1.0,0,1.0
1409,'1',0.0,0.0,0.95,-0.66,1.04,0,2.25,0.0,1.0,0.0,0.0,1.0,0,100.0,1.88,0.93,1,1.0,0,1.0,0,1.0,0,1.0,0,1.0
1410,'1',1.698,0.95,0.95,-0.66,1.04,0,2.25,0.0,1.0,0.0,0.0,1.0,1,100.0,1.88,0.58,1,1.0,0,1.0,0,1.0,0,1.0,0,1.0
1410,'2',1.698,0.95,0.95,-0.66,1.04,0,2.25,0.0,1.0,0.0,0.0,1.0,1,100.0,1.88,0.77,1,1.0,0,1.0,0,1.0,0,1.0,0,1.0
1411,'1',1.698,0.95,0.95,-0.66,1.04,0,2.25,0.0,1.0,0.0,0.0,1.0,1,100.0,1.88,0.66,1,1.0,0,1.0,0,1.0,0,1.0,0,1.0
1413,'1',61.006,3.407,60.09,-42.06,1.04,0,154.728,0.0,1.0,0.0,0.0,1.0,1,100.0,128.94,27.44,1,1.0,0,1.0,0,1.0,0,1.0,0,1.0
1414,'1',90.796,3.424,60.09,-42.06,1.04,0,154.728,0.0,1.0,0.0,0.0,1.0,1,100.0,128.94,57.23,1,1.0,0,1.0,0,1.0,0,1.0,0,1.0
1415,'1',82.736,4.182,60.09,-42.06,1.04,0,154.728,0.0,1.0,0.0,0.0,1.0,1,100.0,128.94,49.17,1,1.0,0,1.0,0,1.0,0,1.0,0,1.0
1416,'1',90.716,15.0,60.09,-42.06,1.037,1412,154.728,0.0,1.0,0.0,0.0,1.0,1,100.0,128.94,57.15,1,1.0,0,1.0,0,1.0,0,1.0,0,1.0
1417,'1',66.016,3.489,60.09,-42.06,1.04,0,154.728,0.0,1.0,0.0,0.0,1.0,1,100.0,128.94,32.45,1,1.0,0,1.0,0,1.0,0,1.0,0,1.0
1419,'1',0.299,0.036,0.15,-0.1,1.04,0,0.39,0.0,1.0,0.0,0.0,1.0,1,100.0,0.33,0.01,1,1.0,0,1.0,0,1.0,0,1.0,0,1.0
1419,'2',0.299,0.036,0.15,-0.1,1.04,0,0.39,0.0,1.0,0.0,0.0,1.0,1,100.0,0.33,0.01,1,1.0,0,1.0,0,1.0,0,1.0,0,1.0
1419,'3',0.299,0.036,0.15,-0.1,1.04,0,0.39,0.0,1.0,0.0,0.0,1.0,1,100.0,0.33,0.01,1,1.0,0,1.0,0,1.0,0,1.0,0,1.0
1419,'4',0.0,0.0,0.15,-0.1,1.04,0,0.39,0.0,1.0,0.0,0.0,1.0,0,100.0,0.33,0.01,1,1.0,0,1.0,0,1.0,0,1.0,0,1.0
1419,'5',0.587,0.036,0.3,-0.21,1.04,0,0.78,0.0,1.0,0.0,0.0,1.0,1,100.0,0.65,0.17,1,1.0,0,1.0,0,1.0,0,1.0,0,1.0
1419,'6',0.587,0.036,0.3,-0.21,1.04,0,0.78,0.0,1.0,0.0,0.0,1.0,1,100.0,0.65,0.13,1,1.0,0,1.0,0,1.0,0,1.0,0,1.0
1422,'1',42.988,-2.377,24.23,-16.96,1.04,0,57.12,0.0,1.0,0.0,0.0,1.0,1,100.0,47.6,16.55,1,1.0,0,1.0,0,1.0,0,1.0,0,1.0
1422,'2',42.988,-2.377,24.23,-16.96,1.04,0,57.12,0.0,1.0,0.0,0.0,1.0,1,100.0,47.6,17.53,1,1.0,0,1.0,0,1.0,0,1.0,0,1.0
1422,'3',42.988,-2.377,24.23,-16.96,1.04,0,57.12,0.0,1.0,0.0,0.0,1.0,1,100.0,47.6,17.63,1,1.0,0,1.0,0,1.0,0,1.0,0,1.0
1425,'1',1.084,0.56,0.56,-0.39,1.04,0,1.44,0.0,1.0,0.0,0.0,1.0,1,100.0,1.2,0.49,1,1.0,0,1.0,0,1.0,0,1.0,0,1.0
1425,'2',0.0,0.0,0.56,-0.39,1.04,0,1.44,0.0,1.0,0.0,0.0,1.0,0,100.0,1.2,0.48,1,1.0,0,1.0,0,1.0,0,1.0,0,1.0
1425,'3',1.084,0.56,0.56,-0.39,1.04,0,1.44,0.0,1.0,0.0,0.0,1.0,1,100.0,1.2,0.42,1,1.0,0,1.0,0,1.0,0,1.0,0,1.0
1428,'1',17.611,6.091,9.93,-6.95,1.04,0,23.4,0.0,1.0,0.0,0.0,1.0,1,100.0,19.5,2.17,1,1.0,0,1.0,0,1.0,0,1.0,0,1.0
1428,'2',17.611,6.091,9.93,-6.95,1.04,0,23.4,0.0,1.0,0.0,0.0,1.0,1,100.0,19.5,4.7,1,1.0,0,1.0,0,1.0,0,1.0,0,1.0
1431,'1',2.167,0.529,1.12,-0.78,1.04,0,2.88,0.0,1.0,0.0,0.0,1.0,1,100.0,2.4,0.88,1,1.0,0,1.0,0,1.0,0,1.0,0,1.0
1431,'2',0.0,0.0,1.12,-0.78,1.04,0,2.88,0.0,1.0,0.0,0.0,1.0,0,100.0,2.4,0.71,1,1.0,0,1.0,0,1.0,0,1.0,0,1.0
1432,'1',2.167,0.273,1.12,-0.78,1.04,0,2.88,0.0,1.0,0.0,0.0,1.0,1,100.0,2.4,0.62,1,1.0,0,1.0,0,1.0,0,1.0,0,1.0
1432,'2',2.167,0.273,1.12,-0.78,1.04,0,2.88,0.0,1.0,0.0,0.0,1.0,1,100.0,2.4,0.68,1,1.0,0,1.0,0,1.0,0,1.0,0,1.0
1433,'1',2.167,0.264,1.12,-0.78,1.04,0,2.88,0.0,1.0,0.0,0.0,1.0,1,100.0,2.4,0.28,1,1.0,0,1.0,0,1.0,0,1.0,0,1.0
1433,'2',0.569,0.264,0.3,-0.21,1.04,0,0.76,0.0,1.0,0.0,0.0,1.0,1,100.0,0.63,0.08,1,1.0,0,1.0,0,1.0,0,1.0,0,1.0
1434,'1',0.0,0.0,0.3,-0.21,1.04,0,0.76,0.0,1.0,0.0,0.0,1.0,0,100.0,0.63,0.19,1,1.0,0,1.0,0,1.0,0,1.0,0,1.0
1434,'2',0.569,0.186,0.3,-0.21,1.04,0,0.76,0.0,1.0,0.0,0.0,1.0,1,100.0,0.63,0.31,1,1.0,0,1.0,0,1.0,0,1.0,0,1.0
1439,'1',9.737,2.004,2.921,-2.921,1.04,0,12.96,0.0,1.0,0.0,0.0,1.0,1,100.0,9.737,0.0,1,1.0,0,1.0,0,1.0,0,1.0,0,1.0
1440,'1',10.641,1.39,3.192,-3.192,1.04,0,12.96,0.0,1.0,0.0,0.0,1.0,1,100.0,10.641,0.0,1,1.0,0,1.0,0,1.0,0,1.0,0,1.0
1442,'1',9.71,-2.913,2.913,-2.913,1.04,0,87.72,0.0,1.0,0.0,0.0,1.0,1,100.0,9.71,0.0,1,1.0,0,1.0,0,1.0,0,1.0,1,1.0
1446,'1',4.064,0.504,2.29,-1.6,1.04,0,5.4,0.0,1.0,0.0,0.0,1.0,1,100.0,4.5,1.16,1,1.0,0,1.0,0,1.0,0,1.0,0,1.0
1446,'2',4.064,0.504,2.29,-1.6,1.04,0,5.4,0.0,1.0,0.0,0.0,1.0,1,100.0,4.5,0.52,1,1.0,0,1.0,0,1.0,0,1.0,0,1.0
1448,'1',49.394,4.388,15.0,-15.0,1.04,0,60.0,0.0,1.0,0.0,0.0,1.0,1,100.0,50.0,0.0,1,1.0,0,1.0,0,1.0,0,1.0,0,1.0
1453,'1',1.31,0.497,0.68,-0.48,1.04,0,1.74,0.0,1.0,0.0,0.0,1.0,1,100.0,1.45,0.32,1,1.0,0,1.0,0,1.0,0,1.0,0,1.0
1453,'2',1.31,0.497,0.68,-0.48,1.04,0,1.74,0.0,1.0,0.0,0.0,1.0,1,100.0,1.45,0.18,1,1.0,0,1.0,0,1.0,0,1.0,0,1.0
1454,'1',1.31,0.68,0.68,-0.48,1.04,0,1.74,0.0,1.0,0.0,0.0,1.0,1,100.0,1.45,0.44,1,1.0,0,1.0,0,1.0,0,1.0,0,1.0
1454,'2',1.31,0.68,0.68,-0.48,1.04,0,1.74,0.0,1.0,0.0,0.0,1.0,1,100.0,1.45,0.38,1,1.0,0,1.0,0,1.0,0,1.0,0,1.0
1456,'1',23.1,7.146,7.146,-7.146,1.04,0,71.28,0.0,1.0,0.0,0.0,1.0,1,100.0,23.82,0.0,1,1.0,0,1.0,0,1.0,0,1.0,1,1.0
1460,'1',0.0,0.0,0.37,-0.26,1.04,0,0.96,0.0,1.0,0.0,0.0,1.0,0,100.0,0.8,0.18,1,1.0,0,1.0,0,1.0,0,1.0,0,1.0
1460,'2',0.587,0.3,0.3,-0.21,1.04,0,0.78,0.0,1.0,0.0,0.0,1.0,1,100.0,0.65,0.25,1,1.0,0,1.0,0,1.0,0,1.0,0,1.0
1461,'1',0.0,0.0,0.3,-0.21,1.04,0,0.78,0.0,1.0,0.0,0.0,1.0,0,100.0,0.65,0.25,1,1.0,0,1.0,0,1.0,0,1.0,0,1.0
1464,'1',8.336,0.188,2.501,-2.501,1.04,0,12.96,0.0,1.0,0.0,0.0,1.0,1,100.0,8.336,0.0,1,1.0,0,1.0,0,1.0,0,1.0,0,1.0
1464,'2',10.385,0.188,3.115,-3.115,1.04,0,12.96,0.0,1.0,0.0,0.0,1.0,1,100.0,10.385,0.0,1,1.0,0,1.0,0,1.0,0,1.0,0,1.0
1467,'1',5.718,1.171,1.715,-1.715,1.04,0,48.0,0.0,1.0,0.0,0.0,1.0,1,100.0,5.718,0.0,1,1.0,0,1.0,0,1.0,0,1.0,1,1.0
1469,'1',2.619,1.35,1.35,-0.94,1.04,0,3.48,0.0,1.0,0.0,0.0,1.0,1,100.0,2.9,0.33,1,1.0,0,1.0,0,1.0,0,1.0,0,1.0
1473,'1',79.671,0.216,51.17,-35.82,1.04,0,131.76,0.0,1.0,0.0,0.0,1.0,1,100.0,109.8,51.09,1,1.0,0,1.0,0,1.0,0,1.0,0,1.0
1477,'1',30.95,9.285,9.285,-9.285,1.042,1475,247.8,0.0,1.0,0.0,0.0,1.0,1,100.0,30.95,0.0,1,1.0,0,1.0,0,1.0,0,1.0,1,1.0
1482,'1',7.307,2.192,2.192,-2.192,1.04,0,95.88,0.0,1.0,0.0,0.0,1.0,1,100.0,7.307,0.0,1,1.0,0,1.0,0,1.0,0,1.0,1,1.0
1484,'1',0.452,0.23,0.23,-0.16,1.04,0,0.6,0.0,1.0,0.0,0.0,1.0,1,100.0,0.5,0.01,1,1.0,0,1.0,0,1.0,0,1.0,0,1.0
1484,'2',1.626,0.84,0.84,-0.59,1.04,0,2.16,0.0,1.0,0.0,0.0,1.0,1,100.0,1.8,0.45,1,1.0,0,1.0,0,1.0,0,1.0,0,1.0
1487,'1',1.021,-0.41,0.58,-0.41,1.04,0,1.36,0.0,1.0,0.0,0.0,1.0,1,100.0,1.13,0.41,1,1.0,0,1.0,0,1.0,0,1.0,0,1.0
1487,'2',1.021,-0.41,0.58,-0.41,1.04,0,1.36,0.0,1.0,0.0,0.0,1.0,1,100.0,1.13,0.32,1,1.0,0,1.0,0,1.0,0,1.0,0,1.0
1488,'1',1.021,-0.41,0.58,-0.41,1.04,0,1.36,0.0,1.0,0.0,0.0,1.0,1,100.0,1.13,0.47,1,1.0,0,1.0,0,1.0,0,1.0,0,1.0
1491,'1',0.0,0.0,0.65,-0.46,1.04,0,1.68,0.0,1.0,0.0,0.0,1.0,0,100.0,1.4,0.19,1,1.0,0,1.0,0,1.0,0,1.0,0,1.0
1491,'2',1.264,-0.46,0.65,-0.46,1.04,0,1.68,0.0,1.0,0.0,0.0,1.0,1,100.0,1.4,0.42,1,1.0,0,1.0,0,1.0,0,1.0,0,1.0
1492,'1',1.264,-0.229,0.65,-0.46,1.04,0,1.68,0.0,1.0,0.0,0.0,1.0,1,100.0,1.4,0.18,1,1.0,0,1.0,0,1.0,0,1.0,0,1.0
1492,'2',1.264,-0.229,0.65,-0.46,1.04,0,1.68,0.0,1.0,0.0,0.0,1.0,1,100.0,1.4,0.21,1,1.0,0,1.0,0,1.0,0,1.0,0,1.0
1493,'1',1.264,-0.233,0.65,-0.46,1.04,0,1.68,0.0,1.0,0.0,0.0,1.0,1,100.0,1.4,0.69,1,1.0,0,1.0,0,1.0,0,1.0,0,1.0
1493,'2',0.677,-0.233,0.35,-0.25,1.04,0,0.9,0.0,1.0,0.0,0.0,1.0,1,100.0,0.75,0.27,1,1.0,0,1.0,0,1.0,0,1.0,0,1.0
1494,'1',0.677,-0.003,0.35,-0.25,1.04,0,0.9,0.0,1.0,0.0,0.0,1.0,1,100.0,0.75,0.31,1,1.0,0,1.0,0,1.0,0,1.0,0,1.0
1497,'1',0.525,0.079,0.27,-0.19,1.04,0,0.69,0.0,1.0,0.0,0.0,1.0,1,100.0,0.58,0.1,1,1.0,0,1.0,0,1.0,0,1.0,0,1.0
1498,'1',0.525,0.27,0.27,-0.19,1.04,0,0.69,0.0,1.0,0.0,0.0,1.0,1,100.0,0.58,0.18,1,1.0,0,1.0,0,1.0,0,1.0,0,1.0
1498,'2',0.0,0.0,0.27,-0.19,1.04,0,0.69,0.0,1.0,0.0,0.0,1.0,0,100.0,0.58,0.2,1,1.0,0,1.0,0,1.0,0,1.0,0,1.0
1499,'1',0.0,0.0,0.27,-0.19,1.04,0,0.69,0.0,1.0,0.0,0.0,1.0,0,100.0,0.58,0.21,1,1.0,0,1.0,0,1.0,0,1.0,0,1.0
1503,'1',0.768,0.206,0.43,-0.3,1.04,0,1.02,0.0,1.0,0.0,0.0,1.0,1,100.0,0.85,0.2,1,1.0,0,1.0,0,1.0,0,1.0,0,1.0
1503,'2',0.768,0.206,0.43,-0.3,1.04,0,1.02,0.0,1.0,0.0,0.0,1.0,1,100.0,0.85,0.12,1,1.0,0,1.0,0,1.0,0,1.0,0,1.0
1504,'1',0.768,0.015,0.43,-0.3,1.04,0,1.02,0.0,1.0,0.0,0.0,1.0,1,100.0,0.85,0.38,1,1.0,0,1.0,0,1.0,0,1.0,0,1.0
1505,'1',0.0,0.0,0.43,-0.3,1.04,0,1.02,0.0,1.0,0.0,0.0,1.0,0,100.0,0.85,0.21,1,1.0,0,1.0,0,1.0,0,1.0,0,1.0
1506,'1',0.542,0.225,0.31,-0.22,1.04,0,0.72,0.0,1.0,0.0,0.0,1.0,1,100.0,0.6,0.17,1,1.0,0,1.0,0,1.0,0,1.0,0,1.0
1506,'2',0.0,0.0,0.31,-0.22,1.04,0,0.72,0.0,1.0,0.0,0.0,1.0,0,100.0,0.6,0.16,1,1.0,0,1.0,0,1.0,0,1.0,0,1.0
1508,'1',0.885,0.5,0.5,-0.35,1.04,0,1.17,0.0,1.0,0.0,0.0,1.0,1,100.0,0.98,0.31,1,1.0,0,1.0,0,1.0,0,1.0,0,1.0
1509,'1',0.885,0.014,0.5,-0.35,1.04,0,1.17,0.0,1.0,0.0,0.0,1.0,1,100.0,0.98,0.4,1,1.0,0,1.0,0,1.0,0,1.0,0,1.0
1509,'2',0.885,0.014,0.5,-0.35,1.04,0,1.17,0.0,1.0,0.0,0.0,1.0,1,100.0,0.98,0.29,1,1.0,0,1.0,0,1.0,0,1.0,0,1.0
1509,'3',0.885,0.014,0.5,-0.35,1.04,0,1.17,0.0,1.0,0.0,0.0,1.0,1,100.0,0.98,0.46,1,1.0,0,1.0,0,1.0,0,1.0,0,1.0
1513,'1',1.129,0.58,0.58,-0.41,1.04,0,1.5,0.0,1.0,0.0,0.0,1.0,1,100.0,1.25,0.37,1,1.0,0,1.0,0,1.0,0,1.0,0,1.0
...
0 / END OF GENERATOR DATA BEGIN BRANCH DATA
1,3,'1',0.01313,0.0422,0.00106056,63.6,63.6,63.6,0.0,0.0,0.0,0.0,1,1,4.65,1,1.0,0,1.0,0,1.0,0,1.0
2,4,'1',0.0002,0.00106,0.0,322.0,322.0,322.0,0.0,0.0,0.0,0.0,1,1,0.0,1,1.0,0,1.0,0,1.0,0,1.0
2,1565,'1',0.00841,0.04589,0.0221834,223.7,223.7,223.7,0.0,0.0,0.0,0.0,1,1,17.87,1,1.0,0,1.0,0,1.0,0,1.0
3,995,'1',0.10316,0.23914,0.00412069,59.3,59.3,59.3,0.0,0.0,0.0,0.0,1,1,17.47,1,1.0,0,1.0,0,1.0,0,1.0
3,997,'1',0.08873,0.22305,0.0017828,58.4,58.4,58.4,0.0,0.0,0.0,0.0,1,1,12.6,1,1.0,0,1.0,0,1.0,0,1.0
5,15,'1',0.03587,0.08957,0.00326876,55.8,55.8,55.8,0.0,0.0,0.0,0.0,1,1,10.45,1,1.0,0,1.0,0,1.0,0,1.0
5,1223,'1',0.03741,0.08374,0.00721067,51.6,51.6,51.6,0.0,0.0,0.0,0.0,1,1,13.29,1,1.0,0,1.0,0,1.0,0,1.0
6,11,'1',0.03144,0.0816,0.00438315,73.6,73.6,73.6,0.0,0.0,0.0,0.0,1,1,13.15,1,1.0,0,1.0,0,1.0,0,1.0
6,24,'1',0.08468,0.21522,0.0027763,60.7,60.7,60.7,0.0,0.0,0.0,0.0,1,1,13.51,1,1.0,0,1.0,0,1.0,0,1.0
6,281,'1',0.08228,0.2017,0.00315245,58.3,58.3,58.3,0.0,0.0,0.0,0.0,1,1,13.07,1,1.0,0,1.0,0,1.0,0,1.0
6,282,'1',0.10087,0.2659,0.00641407,54.9,54.9,54.9,0.0,0.0,0.0,0.0,1,1,22.8,1,1.0,0,1.0,0,1.0,0,1.0
7,9,'1',0.00029,0.00119,0.0,322.0,322.0,322.0,0.0,0.0,0.0,0.0,1,1,0.0,1,1.0,0,1.0,0,1.0,0,1.0
8,15,'1',0.05541,0.14602,0.00519108,58.5,58.5,58.5,0.0,0.0,0.0,0.0,1,1,14.76,1,1.0,0,1.0,0,1.0,0,1.0
9,1429,'1',0.00314,0.02004,0.00714349,253.3,253.3,253.3,0.0,0.0,0.0,0.0,1,1,8.04,1,1.0,0,1.0,0,1.0,0,1.0
10,11,'1',0.02801,0.09239,0.0011754,69.5,69.5,69.5,0.0,0.0,0.0,0.0,1,1,7.32,1,1.0,0,1.0,0,1.0,0,1.0
10,1428,'1',0.02247,0.06596,0.00141151,81.1,81.1,81.1,0.0,0.0,0.0,0.0,1,1,6.71,1,1.0,0,1.0,0,1.0,0,1.0
11,27,'1',0.10225,0.29273,0.00749165,62.9,62.9,62.9,0.0,0.0,0.0,0.0,1,1,24.86,1,1.0,0,1.0,0,1.0,0,1.0
11,284,'1',0.0571,0.12365,0.00195983,38.6,38.6,38.6,0.0,0.0,0.0,0.0,1,1,8.81,1,1.0,0,1.0,0,1.0,0,1.0
12,14,'1',0.00026,0.00118,0.0,193.2,193.2,193.2,0.0,0.0,0.0,0.0,1,1,0.0,1,1.0,0,1.0,0,1.0,0,1.0
13,17,'1',0.02404,0.06292,0.000684217,67.8,67.8,67.8,0.0,0.0,0.0,0.0,1,1,4.69,1,1.0,0,1.0,0,1.0,0,1.0
13,25,'1',0.01667,0.04868,0.0105321,62.7,62.7,62.7,0.0,0.0,0.0,0.0,1,1,12.06,1,1.0,0,1.0,0,1.0,0,1.0
15,16,'1',0.00025,0.00113,0.0,82.8,82.8,82.8,0.0,0.0,0.0,0.0,1,1,0.0,1,1.0,0,1.0,0,1.0,0,1.0
17,1401,'1',0.02167,0.05696,0.000562571,76.2,76.2,76.2,0.0,0.0,0.0,0.0,1,1,3.7,1,1.0,0,1.0,0,1.0,0,1.0
18,17,'1',0.01641,0.0419,0.00069683,68.4,68.4,68.4,0.0,0.0,0.0,0.0,1,1,3.07,1,1.0,0,1.0,0,1.0,0,1.0
19,18,'1',0.04978,0.12154,0.00125506,66.3,66.3,66.3,0.0,0.0,0.0,0.0,1,1,8.75,1,1.0,0,1.0,0,1.0,0,1.0
19,21,'1',0.04995,0.10901,0.00117582,65.1,65.1,65.1,0.0,0.0,0.0,0.0,1,1,6.77,1,1.0,0,1.0,0,1.0,0,1.0
20,22,'1',0.02915,0.0669,0.00356269,59.0,59.0,59.0,0.0,0.0,0.0,0.0,1,1,10.12,1,1.0,0,1.0,0,1.0,0,1.0
20,124,'1',0.04016,0.10271,0.00133448,60.9,60.9,60.9,0.0,0.0,0.0,0.0,1,1,8.31,1,1.0,0,1.0,0,1.0,0,1.0
21,789,'1',0.04461,0.10843,0.00441154,63.8,63.8,63.8,0.0,0.0,0.0,0.0,1,1,11.17,1,1.0,0,1.0,0,1.0,0,1.0
22,25,'1',0.02407,0.07881,0.000658623,60.3,60.3,60.3,0.0,0.0,0.0,0.0,1,1,5.65,1,1.0,0,1.0,0,1.0,0,1.0
23,24,'1',0.00024,0.00118,0.0,82.8,82.8,82.8,0.0,0.0,0.0,0.0,1,1,0.0,1,1.0,0,1.0,0,1.0,0,1.0
24,8,'1',0.03763,0.09028,0.0030984,63.6,63.6,63.6,0.0,0.0,0.0,0.0,1,1,10.36,1,1.0,0,1.0,0,1.0,0,1.0
26,27,'1',0.00813,0.02038,0.000636728,69.1,69.1,69.1,0.0,0.0,0.0,0.0,1,1,2.46,1,1.0,0,1.0,0,1.0,0,1.0
27,28,'1',0.00026,0.001,0.0,82.8,82.8,82.8,0.0,0.0,0.0,0.0,1,1,0.0,1,1.0,0,1.0,0,1.0,0,1.0
27,147,'1',0.05735,0.12659,0.00152507,61.1,61.1,61.1,0.0,0.0,0.0,0.0,1,1,10.94,1,1.0,0,1.0,0,1.0,0,1.0
29,30,'1',0.00022,0.00118,0.0,82.8,82.8,82.8,0.0,0.0,0.0,0.0,1,1,0.0,1,1.0,0,1.0,0,1.0,0,1.0
29,39,'1',0.04234,0.13488,0.00334089,37.7,37.7,37.7,0.0,0.0,0.0,0.0,1,1,10.74,1,1.0,0,1.0,0,1.0,0,1.0
31,42,'1',0.06561,0.14634,0.00218529,62.3,62.3,62.3,0.0,0.0,0.0,0.0,1,1,13.21,1,1.0,0,1.0,0,1.0,0,1.0
31,50,'1',0.02108,0.06968,0.00513297,61.6,61.6,61.6,0.0,0.0,0.0,0.0,1,1,11.99,1,1.0,0,1.0,0,1.0,0,1.0
32,1512,'1',0.02773,0.062,0.00175154,61.5,61.5,61.5,0.0,0.0,0.0,0.0,1,1,6.48,1,1.0,0,1.0,0,1.0,0,1.0
33,34,'1',0.02886,0.06334,0.00117304,55.0,55.0,55.0,0.0,0.0,0.0,0.0,1,1,5.8,1,1.0,0,1.0,0,1.0,0,1.0
33,44,'1',0.03836,0.10125,0.0107134,50.5,50.5,50.5,0.0,0.0,0.0,0.0,1,1,16.32,1,1.0,0,1.0,0,1.0,0,1.0
34,32,'1',0.0238,0.06212,0.00119608,58.8,58.8,58.8,0.0,0.0,0.0,0.0,1,1,5.04,1,1.0,0,1.0,0,1.0,0,1.0
35,36,'1',0.00023,0.00106,0.0,82.8,82.8,82.8,0.0,0.0,0.0,0.0,1,1,0.0,1,1.0,0,1.0,0,1.0,0,1.0
36,37,'1',0.04153,0.10802,0.00105559,58.9,58.9,58.9,0.0,0.0,0.0,0.0,1,1,7.93,1,1.0,0,1.0,0,1.0,0,1.0
38,1224,'1',0.08241,0.20818,0.00311698,52.3,52.3,52.3,0.0,0.0,0.0,0.0,1,1,14.07,1,1.0,0,1.0,0,1.0,0,1.0
39,36,'1',0.0676,0.16153,0.00551525,62.3,62.3,62.3,0.0,0.0,0.0,0.0,1,1,16.31,1,1.0,0,1.0,0,1.0,0,1.0
39,46,'1',0.04744,0.14161,0.0100342,56.2,56.2,56.2,0.0,0.0,0.0,0.0,1,1,20.67,1,1.0,0,1.0,0,1.0,0,1.0
41,43,'1',0.00028,0.00119,0.0,322.0,322.0,322.0,0.0,0.0,0.0,0.0,1,1,0.0,1,1.0,0,1.0,0,1.0,0,1.0
41,1511,'1',0.0075,0.04091,0.0175041,225.4,225.4,225.4,0.0,0.0,0.0,0.0,1,1,13.8,1,1.0,0,1.0,0,1.0,0,1.0
42,40,'1',0.02716,0.06455,0.000985665,39.0,39.0,39.0,0.0,0.0,0.0,0.0,1,1,5.85,1,1.0,0,1.0,0,1.0,0,1.0
44,45,'1',0.00022,0.00118,0.0,82.8,82.8,82.8,0.0,0.0,0.0,0.0,1,1,0.0,1,1.0,0,1.0,0,1.0,0,1.0
44,46,'1',0.0356,0.08859,0.00230199,48.4,48.4,48.4,0.0,0.0,0.0,0.0,1,1,9.78,1,1.0,0,1.0,0,1.0,0,1.0
44,813,'1',0.07826,0.23232,0.00738698,48.8,48.8,48.8,0.0,0.0,0.0,0.0,1,1,21.79,1,1.0,0,1.0,0,1.0,0,1.0
47,42,'1',0.03479,0.10346,0.00577533,65.2,65.2,65.2,0.0,0.0,0.0,0.0,1,1,12.84,1,1.0,0,1.0,0,1.0,0,1.0
47,1512,'1',0.02577,0.0455,0.000498006,54.1,54.1,54.1,0.0,0.0,0.0,0.0,1,1,3.42,1,1.0,0,1.0,0,1.0,0,1.0
48,47,'1',0.01254,0.03273,0.00170119,46.6,46.6,46.6,0.0,0.0,0.0,0.0,1,1,4.34,1,1.0,0,1.0,0,1.0,0,1.0
49,1019,'1',0.03556,0.08966,0.00869286,57.3,57.3,57.3,0.0,0.0,0.0,0.0,1,1,14.91,1,1.0,0,1.0,0,1.0,0,1.0
50,51,'1',0.00027,0.00112,0.0,82.8,82.8,82.8,0.0,0.0,0.0,0.0,1,1,0.0,1,1.0,0,1.0,0,1.0,0,1.0
50,93,'1',0.02487,0.06181,0.0111441,64.8,64.8,64.8,0.0,0.0,0.0,0.0,1,1,13.85,1,1.0,0,1.0,0,1.0,0,1.0
52,50,'1',0.04122,0.10108,0.00144688,64.6,64.6,64.6,0.0,0.0,0.0,0.0,1,1,8.09,1,1.0,0,1.0,0,1.0,0,1.0
53,54,'1',0.06349,0.13884,0.00356796,54.1,54.1,54.1,0.0,0.0,0.0,0.0,1,1,11.6,1,1.0,0,1.0,0,1.0,0,1.0
53,55,'1',0.18742,0.38508,0.00445659,55.1,55.1,55.1,0.0,0.0,0.0,0.0,1,1,22.56,1,1.0,0,1.0,0,1.0,0,1.0
54,57,'1',0.03719,0.11687,0.00418983,55.4,55.4,55.4,0.0,0.0,0.0,0.0,1,1,12.28,1,1.0,0,1.0,0,1.0,0,1.0
55,56,'1',0.00026,0.00107,0.0,82.8,82.8,82.8,0.0,0.0,0.0,0.0,1,1,0.0,1,1.0,0,1.0,0,1.0,0,1.0
55,59,'1',0.12679,0.25425,0.00390763,58.9,58.9,58.9,0.0,0.0,0.0,0.0,1,1,17.52,1,1.0,0,1.0,0,1.0,0,1.0
55,247,'1',0.09425,0.26544,0.00646528,56.7,56.7,56.7,0.0,0.0,0.0,0.0,1,1,22.49,1,1.0,0,1.0,0,1.0,0,1.0
57,58,'1',0.00026,0.00105,0.0,82.8,82.8,82.8,0.0,0.0,0.0,0.0,1,1,0.0,1,1.0,0,1.0,0,1.0,0,1.0
57,792,'1',0.09536,0.21463,0.00617624,46.0,46.0,46.0,0.0,0.0,0.0,0.0,1,1,19.67,1,1.0,0,1.0,0,1.0,0,1.0
60,61,'1',0.01099,0.02645,0.000766571,63.3,63.3,63.3,0.0,0.0,0.0,0.0,1,1,2.74,1,1.0,0,1.0,0,1.0,0,1.0
60,1133,'1',0.01927,0.04625,0.00343702,65.5,65.5,65.5,0.0,0.0,0.0,0.0,1,1,6.51,1,1.0,0,1.0,0,1.0,0,1.0
61,62,'1',0.03918,0.08273,0.00745236,70.1,70.1,70.1,0.0,0.0,0.0,0.0,1,1,13.25,1,1.0,0,1.0,0,1.0,0,1.0
63,1365,'1',0.06866,0.16898,0.00364856,51.9,51.9,51.9,0.0,0.0,0.0,0.0,1,1,13.55,1,1.0,0,1.0,0,1.0,0,1.0
64,66,'1',0.00024,0.00118,0.0,1500.0,1500.0,1500.0,0.0,0.0,0.0,0.0,1,1,0.0,1,1.0,0,1.0,0,1.0,0,1.0
65,64,'1',0.0003,0.0203,0.0,947.2,947.2,947.2,0.0,0.0,0.0,0.0,1,1,0.0,1,1.0,0,1.0,0,1.0,0,1.0
65,75,'1',0.01623,0.10623,0.0839435,232.0,232.0,232.0,0.0,0.0,0.0,0.0,1,1,51.05,1,1.0,0,1.0,0,1.0,0,1.0
65,971,'1',0.00795,0.0484,0.0465639,240.5,240.5,240.5,0.0,0.0,0.0,0.0,1,1,25.3,1,1.0,0,1.0,0,1.0,0,1.0
65,1146,'1',0.00316,0.01703,0.0350861,296.1,296.1,296.1,0.0,0.0,0.0,0.0,1,1,12.74,1,1.0,0,1.0,0,1.0,0,1.0
67,69,'1',0.00027,0.00105,0.0,322.0,322.0,322.0,0.0,0.0,0.0,0.0,1,1,0.0,1,1.0,0,1.0,0,1.0,0,1.0
67,1150,'1',0.00294,0.01807,0.109657,239.5,239.5,239.5,0.0,0.0,0.0,0.0,1,1,24.13,1,1.0,0,1.0,0,1.0,0,1.0
68,71,'1',0.04031,0.08685,0.00190578,64.3,64.3,64.3,0.0,0.0,0.0,0.0,1,1,9.0,1,1.0,0,1.0,0,1.0,0,1.0
70,68,'1',0.05686,0.09742,0.00176764,61.8,61.8,61.8,0.0,0.0,0.0,0.0,1,1,8.13,1,1.0,0,1.0,0,1.0,0,1.0
71,70,'1',0.05982,0.14452,0.00426608,61.6,61.6,61.6,0.0,0.0,0.0,0.0,1,1,13.61,1,1.0,0,1.0,0,1.0,0,1.0
71,1255,'1',0.12471,0.23182,0.00869645,75.1,75.1,75.1,0.0,0.0,0.0,0.0,1,1,24.02,1,1.0,0,1.0,0,1.0,0,1.0
72,73,'1',0.06473,0.12817,0.000785679,44.7,44.7,44.7,0.0,0.0,0.0,0.0,1,1,6.84,1,1.0,0,1.0,0,1.0,0,1.0
72,1255,'1',0.01887,0.04138,0.000489991,64.0,64.0,64.0,0.0,0.0,0.0,0.0,1,1,3.18,1,1.0,0,1.0,0,1.0,0,1.0
72,1365,'1',0.00885,0.02504,0.000719839,70.0,70.0,70.0,0.0,0.0,0.0,0.0,1,1,2.49,1,1.0,0,1.0,0,1.0,0,1.0
73,805,'1',0.06533,0.12364,0.001864,36.7,36.7,36.7,0.0,0.0,0.0,0.0,1,1,9.01,1,1.0,0,1.0,0,1.0,0,1.0
74,63,'1',0.05576,0.18403,0.00400422,39.9,39.9,39.9,0.0,0.0,0.0,0.0,1,1,14.49,1,1.0,0,1.0,0,1.0,0,1.0
75,1366,'1',0.01862,0.1102,0.030958,224.0,224.0,224.0,0.0,0.0,0.0,0.0,1,1,33.47,1,1.0,0,1.0,0,1.0,0,1.0
76,273,'1',0.06315,0.14536,0.00623489,66.6,66.6,66.6,0.0,0.0,0.0,0.0,1,1,16.92,1,1.0,0,1.0,0,1.0,0,1.0
76,1365,'1',0.02455,0.04642,0.0333872,68.8,68.8,68.8,0.0,0.0,0.0,0.0,1,1,21.95,1,1.0,0,1.0,0,1.0,0,1.0
77,78,'1',0.12509,0.34626,0.00526885,44.1,44.1,44.1,0.0,0.0,0.0,0.0,1,1,23.52,1,1.0,0,1.0,0,1.0,0,1.0
78,936,'1',0.11939,0.24271,0.00422818,45.4,45.4,45.4,0.0,0.0,0.0,0.0,1,1,17.57,1,1.0,0,1.0,0,1.0,0,1.0
79,81,'1',0.00025,0.00115,0.0,193.2,193.2,193.2,0.0,0.0,0.0,0.0,1,1,0.0,1,1.0,0,1.0,0,1.0,0,1.0
80,82,'1',0.01429,0.0305,0.00243608,68.2,68.2,68.2,0.0,0.0,0.0,0.0,1,1,5.13,1,1.0,0,1.0,0,1.0,0,1.0
80,84,'1',0.03237,0.09116,0.000815056,57.9,57.9,57.9,0.0,0.0,0.0,0.0,1,1,5.42,1,1.0,0,1.0,0,1.0,0,1.0
81,977,'1',0.01002,0.06483,0.0360946,237.8,237.8,237.8,0.0,0.0,0.0,0.0,1,1,26.1,1,1.0,0,1.0,0,1.0,0,1.0
81,1327,'1',0.00494,0.02728,0.0337926,282.5,282.5,282.5,0.0,0.0,0.0,0.0,1,1,16.82,1,1.0,0,1.0,0,1.0,0,1.0
82,83,'1',0.02194,0.05695,0.00290635,54.6,54.6,54.6,0.0,0.0,0.0,0.0,1,1,8.44,1,1.0,0,1.0,0,1.0,0,1.0
82,95,'1',0.03315,0.10152,0.00223184,63.0,63.0,63.0,0.0,0.0,0.0,0.0,1,1,9.5,1,1.0,0,1.0,0,1.0,0,1.0
86,87,'1',0.00021,0.00118,0.0,82.8,82.8,82.8,0.0,0.0,0.0,0.0,1,1,0.0,1,1.0,0,1.0,0,1.0,0,1.0
86,90,'1',0.04516,0.10658,0.00174493,54.0,54.0,54.0,0.0,0.0,0.0,0.0,1,1,8.15,1,1.0,0,1.0,0,1.0,0,1.0
86,95,'1',0.04212,0.11971,0.00189271,56.5,56.5,56.5,0.0,0.0,0.0,0.0,1,1,10.11,1,1.0,0,1.0,0,1.0,0,1.0
88,89,'1',0.00022,0.0011,0.0,82.8,82.8,82.8,0.0,0.0,0.0,0.0,1,1,0.0,1,1.0,0,1.0,0,1.0,0,1.0
89,90,'1',0.02314,0.0696,0.00159905,54.2,54.2,54.2,0.0,0.0,0.0,0.0,1,1,7.45,1,1.0,0,1.0,0,1.0,0,1.0
89,949,'1',0.08751,0.16269,0.00547592,52.3,52.3,52.3,0.0,0.0,0.0,0.0,1,1,15.94,1,1.0,0,1.0,0,1.0,0,1.0
90,91,'1',0.00025,0.00111,0.0,82.8,82.8,82.8,0.0,0.0,0.0,0.0,1,1,0.0,1,1.0,0,1.0,0,1.0,0,1.0
90,945,'1',0.04932,0.11327,0.001833,49.9,49.9,49.9,0.0,0.0,0.0,0.0,1,1,9.0,1,1.0,0,1.0,0,1.0,0,1.0
92,93,'1',0.00025,0.00103,0.0,82.8,82.8,82.8,0.0,0.0,0.0,0.0,1,1,0.0,1,1.0,0,1.0,0,1.0,0,1.0
93,37,'1',0.05675,0.1069,0.00257658,55.9,55.9,55.9,0.0,0.0,0.0,0.0,1,1,10.63,1,1.0,0,1.0,0,1.0,0,1.0
93,1481,'1',0.02165,0.06009,0.00068862,67.2,67.2,67.2,0.0,0.0,0.0,0.0,1,1,3.67,1,1.0,0,1.0,0,1.0,0,1.0
94,95,'1',0.06187,0.17098,0.00266755,50.7,50.7,50.7,0.0,0.0,0.0,0.0,1,1,12.83,1,1.0,0,1.0,0,1.0,0,1.0
94,980,'1',0.06118,0.12168,0.00183037,49.6,49.6,49.6,0.0,0.0,0.0,0.0,1,1,11.29,1,1.0,0,1.0,0,1.0,0,1.0
96,97,'1',0.03253,0.08057,0.000922186,61.3,61.3,61.3,0.0,0.0,0.0,0.0,1,1,5.07,1,1.0,0,1.0,0,1.0,0,1.0
97,100,'1',0.0429,0.14633,0.00171127,71.4,71.4,71.4,0.0,0.0,0.0,0.0,1,1,9.79,1,1.0,0,1.0,0,1.0,0,1.0
97,104,'1',0.10036,0.22171,0.0108369,65.5,65.5,65.5,0.0,0.0,0.0,0.0,1,1,26.49,1,1.0,0,1.0,0,1.0,0,1.0
99,98,'1',0.0002,0.01445,0.0,677.0,677.0,677.0,0.0,0.0,0.0,0.0,1,1,0.0,1,1.0,0,1.0,0,1.0,0,1.0
99,101,'1',0.00029,0.00111,0.0,322.0,322.0,322.0,0.0,0.0,0.0,0.0,1,1,0.0,1,1.0,0,1.0,0,1.0,0,1.0
100,96,'1',0.02125,0.06228,0.000833431,72.3,72.3,72.3,0.0,0.0,0.0,0.0,1,1,4.44,1,1.0,0,1.0,0,1.0,0,1.0
100,649,'1',0.09918,0.21878,0.0079419,53.9,53.9,53.9,0.0,0.0,0.0,0.0,1,1,23.06,1,1.0,0,1.0,0,1.0,0,1.0
102,103,'1',0.00026,0.00101,0.0,82.8,82.8,82.8,0.0,0.0,0.0,0.0,1,1,0.0,1,1.0,0,1.0,0,1.0,0,1.0
103,372,'1',0.11462,0.28035,0.00459568,65.3,65.3,65.3,0.0,0.0,0.0,0.0,1,1,19.27,1,1.0,0,1.0,0,1.0,0,1.0
104,103,'1',0.05491,0.15351,0.00173905,62.1,62.1,62.1,0.0,0.0,0.0,0.0,1,1,10.19,1,1.0,0,1.0,0,1.0,0,1.0
104,1133,'1',0.12768,0.28238,0.00436851,68.1,68.1,68.1,0.0,0.0,0.0,0.0,1,1,20.55,1,1.0,0,1.0,0,1.0,0,1.0
105,106,'1',0.00026,0.00113,0.0,82.8,82.8,82.8,0.0,0.0,0.0,0.0,1,1,0.0,1,1.0,0,1.0,0,1.0,0,1.0
108,109,'1',0.00027,0.00113,0.0,82.8,82.8,82.8,0.0,0.0,0.0,0.0,1,1,0.0,1,1.0,0,1.0,0,1.0,0,1.0
109,4838,'1',0.01559,0.04139,0.00213104,60.7,60.7,60.7,0.0,0.0,0.0,0.0,1,1,5.44,1,1.0,0,1.0,0,1.0,0,1.0
110,111,'1',0.1188,0.27355,0.00577727,45.1,45.1,45.1,0.0,0.0,0.0,0.0,1,1,21.41,1,1.0,0,1.0,0,1.0,0,1.0
110,4961,'1',0.14314,0.33433,0.00469643,48.3,48.3,48.3,0.0,0.0,0.0,0.0,1,1,22.68,1,1.0,0,1.0,0,1.0,0,1.0
111,105,'1',0.08926,0.20021,0.0015973,43.7,43.7,43.7,0.0,0.0,0.0,0.0,1,1,12.33,1,1.0,0,1.0,0,1.0,0,1.0
112,111,'1',0.05043,0.12959,0.00127723,53.2,53.2,53.2,0.0,0.0,0.0,0.0,1,1,8.34,1,1.0,0,1.0,0,1.0,0,1.0
113,114,'1',0.00998,0.02695,0.00206604,48.5,48.5,48.5,0.0,0.0,0.0,0.0,1,1,4.93,1,1.0,0,1.0,0,1.0,0,1.0
114,115,'1',0.00029,0.00102,0.0,82.8,82.8,82.8,0.0,0.0,0.0,0.0,1,1,0.0,1,1.0,0,1.0,0,1.0,0,1.0
114,116,'1',0.0979,0.2023,0.00688085,59.8,59.8,59.8,0.0,0.0,0.0,0.0,1,1,20.26,1,1.0,0,1.0,0,1.0,0,1.0
114,117,'1',0.1638,0.37243,0.00336096,60.9,60.9,60.9,0.0,0.0,0.0,0.0,1,1,18.68,1,1.0,0,1.0,0,1.0,0,1.0
117,1051,'1',0.04619,0.11277,0.00200919,68.6,68.6,68.6,0.0,0.0,0.0,0.0,1,1,9.53,1,1.0,0,1.0,0,1.0,0,1.0
118,331,'1',0.05902,0.13355,0.00937268,66.0,66.0,66.0,0.0,0.0,0.0,0.0,0,1,19.66,1,1.0,0,1.0,0,1.0,0,1.0
119,118,'1',0.04837,0.13813,0.00231517,65.4,65.4,65.4,0.0,0.0,0.0,0.0,1,1,12.34,1,1.0,0,1.0,0,1.0,0,1.0
119,125,'1',0.0658,0.188,0.00278949,68.4,68.4,68.4,0.0,0.0,0.0,0.0,1,1,11.7,1,1.0,0,1.0,0,1.0,0,1.0
120,121,'1',0.0002,0.00106,0.0,82.8,82.8,82.8,0.0,0.0,0.0,0.0,1,1,0.0,1,1.0,0,1.0,0,1.0,0,1.0
121,716,'1',0.03793,0.09559,0.00488707,63.7,63.7,63.7,0.0,0.0,0.0,0.0,1,1,11.8,1,1.0,0,1.0,0,1.0,0,1.0
...